version 2
run General-0-20170616-15:45:19-7431
attr configname General
attr datetime 20170616-15:45:19
attr experiment General
attr inifile omnetpp.ini
attr iterationvars ""
attr iterationvars2 $repetition=0
attr measurement ""
attr network Test
attr processid 7431
attr repetition 0
attr replication #0
attr resultdir results
attr runnumber 0
attr seedset 0
param **.app.StartTime 0s
param **.iWirelessNic.mac.useMACAcks false
param **.mobility.constraintAreaMaxX 200m
param **.mobility.constraintAreaMaxY 200m
param **.mobility.constraintAreaMaxZ 0m
param **.mobility.constraintAreaMinX 0m
param **.mobility.constraintAreaMinY 0m
param **.mobility.constraintAreaMinZ 0m
param **.node[*].Network.Dest 6
param **.node[*].mobility.initialX uniform(20m,200m)
param **.node[*].mobility.initialY uniform(20m,200m)
param **.node[0].Network.Id 0
param **.node[0].app.Period 10s
param **.node[1].Network.Id 1
param **.node[1].app.Period 15s
param **.node[2].Network.Id 2
param **.node[2].app.Period 20s
param **.node[3].Network.Id 3
param **.node[3].app.Period 25s
param **.node[4].Network.Id 4
param **.node[4].app.Period 30s
param **.node[5].Network.Id 5
param **.node[5].app.Period 35s
param **.node[6].Network.Id 6
param **.node[6].app.Period 40s
param **.numNodes 7

vector 7  Test.node[0].iWirelessNic.radio  radioMode:vector  ETV
attr interpolationmode  sample-hold
attr source  radioModeChanged
attr title  "Radio mode, vector"
vector 10  Test.node[1].iWirelessNic.radio  radioMode:vector  ETV
attr interpolationmode  sample-hold
attr source  radioModeChanged
attr title  "Radio mode, vector"
vector 13  Test.node[2].iWirelessNic.radio  radioMode:vector  ETV
attr interpolationmode  sample-hold
attr source  radioModeChanged
attr title  "Radio mode, vector"
vector 16  Test.node[3].iWirelessNic.radio  radioMode:vector  ETV
attr interpolationmode  sample-hold
attr source  radioModeChanged
attr title  "Radio mode, vector"
vector 19  Test.node[4].iWirelessNic.radio  radioMode:vector  ETV
attr interpolationmode  sample-hold
attr source  radioModeChanged
attr title  "Radio mode, vector"
vector 22  Test.node[5].iWirelessNic.radio  radioMode:vector  ETV
attr interpolationmode  sample-hold
attr source  radioModeChanged
attr title  "Radio mode, vector"
vector 25  Test.node[6].iWirelessNic.radio  radioMode:vector  ETV
attr interpolationmode  sample-hold
attr source  radioModeChanged
attr title  "Radio mode, vector"
vector 8  Test.node[0].iWirelessNic.radio  receptionState:vector  ETV
attr interpolationmode  sample-hold
attr source  receptionStateChanged
attr title  "Radio reception state, vector"
vector 11  Test.node[1].iWirelessNic.radio  receptionState:vector  ETV
attr interpolationmode  sample-hold
attr source  receptionStateChanged
attr title  "Radio reception state, vector"
vector 14  Test.node[2].iWirelessNic.radio  receptionState:vector  ETV
attr interpolationmode  sample-hold
attr source  receptionStateChanged
attr title  "Radio reception state, vector"
vector 17  Test.node[3].iWirelessNic.radio  receptionState:vector  ETV
attr interpolationmode  sample-hold
attr source  receptionStateChanged
attr title  "Radio reception state, vector"
vector 20  Test.node[4].iWirelessNic.radio  receptionState:vector  ETV
attr interpolationmode  sample-hold
attr source  receptionStateChanged
attr title  "Radio reception state, vector"
vector 23  Test.node[5].iWirelessNic.radio  receptionState:vector  ETV
attr interpolationmode  sample-hold
attr source  receptionStateChanged
attr title  "Radio reception state, vector"
vector 26  Test.node[6].iWirelessNic.radio  receptionState:vector  ETV
attr interpolationmode  sample-hold
attr source  receptionStateChanged
attr title  "Radio reception state, vector"
vector 9  Test.node[0].iWirelessNic.radio  transmissionState:vector  ETV
attr interpolationmode  sample-hold
attr source  transmissionStateChanged
attr title  "Radio transmission state, vector"
vector 18  Test.node[3].iWirelessNic.radio  transmissionState:vector  ETV
attr interpolationmode  sample-hold
attr source  transmissionStateChanged
attr title  "Radio transmission state, vector"
vector 15  Test.node[2].iWirelessNic.radio  transmissionState:vector  ETV
attr interpolationmode  sample-hold
attr source  transmissionStateChanged
attr title  "Radio transmission state, vector"
vector 21  Test.node[4].iWirelessNic.radio  transmissionState:vector  ETV
attr interpolationmode  sample-hold
attr source  transmissionStateChanged
attr title  "Radio transmission state, vector"
vector 27  Test.node[6].iWirelessNic.radio  transmissionState:vector  ETV
attr interpolationmode  sample-hold
attr source  transmissionStateChanged
attr title  "Radio transmission state, vector"
vector 12  Test.node[1].iWirelessNic.radio  transmissionState:vector  ETV
attr interpolationmode  sample-hold
attr source  transmissionStateChanged
attr title  "Radio transmission state, vector"
vector 24  Test.node[5].iWirelessNic.radio  transmissionState:vector  ETV
attr interpolationmode  sample-hold
attr source  transmissionStateChanged
attr title  "Radio transmission state, vector"
vector 0  Test.node[0]  E2E:vector  ETV
vector 6  Test.node[6]  E2E:vector  ETV
0	17813	5.01321323324	5.01321323324
0	17861	5.03055723324	5.03055723324
6	18051	5.118685589781	5.118685589781
6	18159	20.072576768337	0.072576768337
6	18275	40.070976768337	0.070976768337
6	18389	60.072576768337	0.072576768337
6	18503	80.069696768337	0.069696768337
6	18615	100.071296768337	0.071296768337
6	18731	120.071616768337	0.071616768337
6	18843	140.070656768337	0.070656768337
6	18957	160.072256768337	0.072256768337
6	19073	180.072576768337	0.072576768337
6	19185	200.070016768337	0.070016768337
6	19297	220.071616768337	0.071616768337
6	19413	240.072576768337	0.072576768337
6	19525	260.072256768337	0.072256768337
6	19641	280.069696768337	0.069696768337
6	19755	300.071616768337	0.071616768337
6	19867	320.070336768337	0.070336768337
6	19979	340.071296768337	0.071296768337
6	20097	360.070016768337	0.070016768337
6	20207	380.071296768337	0.071296768337
6	20323	400.070656768337	0.070656768337
6	20437	420.072256768337	0.072256768337
6	20549	440.072576768337	0.072576768337
6	20663	460.071616768337	0.071616768337
6	20779	480.067776768337	0.067776768337
6	20891	500.069696768337	0.069696768337
6	21003	520.068736768337	0.068736768337
6	21119	540.069696768337	0.069696768337
6	21233	560.071936768337	0.071936768337
6	21345	580.071936768337	0.071936768337
6	21463	600.070656768337	0.070656768337
6	21571	620.071296768337	0.071296768337
6	21687	640.072256768337	0.072256768337
6	21801	660.070656768337	0.070656768337
6	21915	680.072256768337	0.072256768337
6	22029	700.070016768337	0.070016768337
6	22143	720.069696768337	0.069696768337
6	22255	740.071936768337	0.071936768337
6	22369	760.070976768337	0.070976768337
6	22485	780.073216768337	0.073216768337
6	22597	800.070976768337	0.070976768337
6	22709	820.069056768337	0.069056768337
6	22827	840.070336768337	0.070336768337
6	22937	860.072896768337	0.072896768337
6	23053	880.071936768337	0.071936768337
6	23167	900.071616768337	0.071616768337
6	23279	920.072576768337	0.072576768337
6	23391	940.072576768337	0.072576768337
6	23509	960.072576768337	0.072576768337
6	23621	980.070976768337	0.070976768337
6	23735	1000.071296768337	0.071296768337
6	23849	1020.071936768337	0.071936768337
6	23961	1040.072576768337	0.072576768337
6	24075	1060.072576768337	0.072576768337
6	24191	1080.073216768337	0.073216768337
6	24303	1100.072256768337	0.072256768337
6	24417	1120.070656768337	0.070656768337
6	24531	1140.072576768337	0.072576768337
6	24645	1160.070976768337	0.070976768337
6	24757	1180.071296768337	0.071296768337
6	24875	1200.069056768337	0.069056768337
6	24983	1220.073536768337	0.073536768337
6	25099	1240.069696768337	0.069696768337
6	25215	1260.069696768337	0.069696768337
6	25327	1280.071296768337	0.071296768337
6	25441	1300.069696768337	0.069696768337
6	25555	1320.071616768337	0.071616768337
6	25667	1340.073216768337	0.073216768337
6	25781	1360.069696768337	0.069696768337
6	25897	1380.071936768337	0.071936768337
6	26011	1400.073216768337	0.073216768337
6	26121	1420.070656768337	0.070656768337
6	26239	1440.069696768337	0.069696768337
6	26349	1460.071296768337	0.071296768337
6	26465	1480.068416768337	0.068416768337
6	26579	1500.071936768337	0.071936768337
6	26691	1520.071296768337	0.071296768337
6	26805	1540.072576768337	0.072576768337
6	26921	1560.069696768337	0.069696768337
6	27033	1580.069376768337	0.069376768337
6	27147	1600.071616768337	0.071616768337
6	27261	1620.069376768337	0.069376768337
6	27373	1640.069056768337	0.069056768337
6	27487	1660.072256768337	0.072256768337
6	27605	1680.071296768337	0.071296768337
6	27715	1700.070656768337	0.070656768337
6	27829	1720.068736768337	0.068736768337
6	27943	1740.069376768337	0.069376768337
6	28057	1760.068096768337	0.068096768337
6	28169	1780.070656768337	0.070656768337
6	28287	1800.071936768337	0.071936768337
6	28397	1820.069056768337	0.069056768337
6	28511	1840.071296768337	0.071296768337
6	28627	1860.073216768337	0.073216768337
6	28739	1880.072256768337	0.072256768337
6	28853	1900.071296768337	0.071296768337
6	28967	1920.072576768337	0.072576768337
6	29079	1940.073216768337	0.073216768337
6	29195	1960.070656768337	0.070656768337
6	29309	1980.073216768337	0.073216768337
6	29423	2000.070336768337	0.070336768337
6	29533	2020.070976768337	0.070976768337
6	29651	2040.070976768337	0.070976768337
6	29761	2060.072576768337	0.072576768337
6	29877	2080.071936768337	0.071936768337
6	29993	2100.070656768337	0.070656768337
6	30103	2120.071296768337	0.071296768337
6	30217	2140.072896768337	0.072896768337
6	30333	2160.071936768337	0.071936768337
6	30445	2180.070016768337	0.070016768337
6	30559	2200.068736768337	0.068736768337
6	30673	2220.071296768337	0.071296768337
6	30787	2240.069696768337	0.069696768337
6	30899	2260.071936768337	0.071936768337
6	31017	2280.074176768337	0.074176768337
6	31127	2300.072256768337	0.072256768337
6	31241	2320.074496768337	0.074496768337
6	31355	2340.072896768337	0.072896768337
6	31469	2360.070656768337	0.070656768337
6	31583	2380.070656768337	0.070656768337
6	31699	2400.071936768337	0.071936768337
6	31809	2420.070336768337	0.070336768337
6	31923	2440.067136768337	0.067136768337
6	32039	2460.071936768337	0.071936768337
6	32151	2480.070656768337	0.070656768337
6	32265	2500.071296768337	0.071296768337
6	32381	2520.071296768337	0.071296768337
6	32491	2540.071936768337	0.071936768337
6	32607	2560.070656768337	0.070656768337
6	32721	2580.070976768337	0.070976768337
6	32835	2600.073216768337	0.073216768337
6	32945	2620.070656768337	0.070656768337
6	33063	2640.070016768337	0.070016768337
6	33175	2660.072576768337	0.072576768337
6	33289	2680.070976768337	0.070976768337
6	33405	2700.070656768337	0.070656768337
6	33515	2720.071936768337	0.071936768337
6	33629	2740.071296768337	0.071296768337
6	33745	2760.072256768337	0.072256768337
6	33857	2780.073216768337	0.073216768337
6	33973	2800.069696768337	0.069696768337
6	34085	2820.070336768337	0.070336768337
6	34199	2840.068736768337	0.068736768337
6	34311	2860.073216768337	0.073216768337
6	34429	2880.073536768337	0.073536768337
6	34539	2900.069696768337	0.069696768337
6	34653	2920.070016768337	0.070016768337
6	34769	2940.069376768337	0.069376768337
6	34881	2960.072576768337	0.072576768337
6	34995	2980.070976768337	0.070976768337
6	35111	3000.073216768337	0.073216768337
6	35221	3020.073216768337	0.073216768337
6	35335	3040.071296768337	0.071296768337
6	35451	3060.070976768337	0.070976768337
6	35565	3080.074816768337	0.074816768337
6	35677	3100.072896768337	0.072896768337
6	35793	3120.069696768337	0.069696768337
6	35903	3140.070976768337	0.070976768337
6	36019	3160.072256768337	0.072256768337
6	36133	3180.072576768337	0.072576768337
6	36247	3200.069376768337	0.069376768337
6	36359	3220.070656768337	0.070656768337
6	36475	3240.070976768337	0.070976768337
6	36587	3260.069696768337	0.069696768337
6	36701	3280.070656768337	0.070656768337
6	36817	3300.069376768337	0.069376768337
6	36927	3320.070976768337	0.070976768337
6	37041	3340.071296768337	0.071296768337
6	37159	3360.072576768337	0.072576768337
6	37269	3380.070016768337	0.070016768337
6	37385	3400.071616768337	0.071616768337
6	37497	3420.070336768337	0.070336768337
6	37611	3440.069376768337	0.069376768337
6	37723	3460.070336768337	0.070336768337
6	37841	3480.070656768337	0.070656768337
6	37953	3500.072576768337	0.072576768337
6	38065	3520.071616768337	0.071616768337
6	38181	3540.071936768337	0.071936768337
6	38293	3560.069056768337	0.069056768337
6	38407	3580.072576768337	0.072576768337
6	38523	3600.071936768337	0.071936768337
6	38633	3620.069696768337	0.069696768337
6	38749	3640.071936768337	0.071936768337
6	38863	3660.068416768337	0.068416768337
6	38977	3680.072896768337	0.072896768337
6	39089	3700.072896768337	0.072896768337
6	39205	3720.073536768337	0.073536768337
6	39315	3740.070976768337	0.070976768337
6	39431	3760.073536768337	0.073536768337
6	39547	3780.070656768337	0.070656768337
6	39659	3800.073216768337	0.073216768337
6	39771	3820.070016768337	0.070016768337
6	39887	3840.071936768337	0.071936768337
6	39999	3860.070016768337	0.070016768337
6	40113	3880.071936768337	0.071936768337
6	40229	3900.074816768337	0.074816768337
6	40341	3920.072256768337	0.072256768337
6	40453	3940.074176768337	0.074176768337
6	40571	3960.069696768337	0.069696768337
6	40681	3980.069696768337	0.069696768337
6	40797	4000.072896768337	0.072896768337
6	40909	4020.073216768337	0.073216768337
6	41023	4040.073216768337	0.073216768337
6	41137	4060.070976768337	0.070976768337
6	41253	4080.073216768337	0.073216768337
6	41365	4100.073216768337	0.073216768337
6	41477	4120.071936768337	0.071936768337
6	41593	4140.069696768337	0.069696768337
6	41705	4160.070656768337	0.070656768337
6	41819	4180.071616768337	0.071616768337
6	41937	4200.067776768337	0.067776768337
6	42045	4220.071616768337	0.071616768337
6	42161	4240.070336768337	0.070336768337
6	42275	4260.070976768337	0.070976768337
6	42389	4280.069696768337	0.069696768337
6	42501	4300.072256768337	0.072256768337
6	42617	4320.070016768337	0.070016768337
6	42729	4340.069056768337	0.069056768337
6	42843	4360.070656768337	0.070656768337
6	42959	4380.070016768337	0.070016768337
6	43071	4400.069376768337	0.069376768337
6	43183	4420.072576768337	0.072576768337
6	43299	4440.070336768337	0.070336768337
6	43411	4460.068416768337	0.068416768337
6	43527	4480.072256768337	0.072256768337
6	43641	4500.070976768337	0.070976768337
6	43753	4520.070016768337	0.070016768337
6	43865	4540.068416768337	0.068416768337
6	43983	4560.070336768337	0.070336768337
6	44093	4580.069696768337	0.069696768337
6	44209	4600.069376768337	0.069376768337
6	44323	4620.071616768337	0.071616768337
6	44435	4640.071296768337	0.071296768337
6	44549	4660.070976768337	0.070976768337
6	44665	4680.069376768337	0.069376768337
6	44777	4700.068736768337	0.068736768337
6	44889	4720.071296768337	0.071296768337
6	45005	4740.073536768337	0.073536768337
6	45119	4760.069696768337	0.069696768337
6	45231	4780.071936768337	0.071936768337
6	45349	4800.069056768337	0.069056768337
6	45457	4820.071936768337	0.071936768337
6	45573	4840.072256768337	0.072256768337
6	45687	4860.068416768337	0.068416768337
6	45801	4880.069376768337	0.069376768337
6	45915	4900.069056768337	0.069056768337
6	46029	4920.071616768337	0.071616768337
6	46141	4940.072256768337	0.072256768337
6	46255	4960.071616768337	0.071616768337
6	46371	4980.072256768337	0.072256768337
6	46483	5000.070656768337	0.070656768337
6	46595	5020.069056768337	0.069056768337
6	46713	5040.070976768337	0.070976768337
6	46823	5060.071616768337	0.071616768337
6	46939	5080.070976768337	0.070976768337
6	47053	5100.072256768337	0.072256768337
6	47165	5120.072576768337	0.072576768337
6	47277	5140.070656768337	0.070656768337
6	47395	5160.070336768337	0.070336768337
6	47507	5180.070016768337	0.070016768337
6	47621	5200.071616768337	0.071616768337
6	47735	5220.070656768337	0.070656768337
6	47847	5240.071936768337	0.071936768337
6	47961	5260.071936768337	0.071936768337
6	48077	5280.071296768337	0.071296768337
6	48189	5300.073536768337	0.073536768337
6	48303	5320.068096768337	0.068096768337
6	48417	5340.069056768337	0.069056768337
6	48531	5360.072576768337	0.072576768337
6	48643	5380.072256768337	0.072256768337
6	48761	5400.071296768337	0.071296768337
6	48869	5420.070656768337	0.070656768337
6	48985	5440.069376768337	0.069376768337
6	49101	5460.069696768337	0.069696768337
6	49213	5480.072896768337	0.072896768337
6	49327	5500.071296768337	0.071296768337
6	49441	5520.069696768337	0.069696768337
6	49553	5540.073216768337	0.073216768337
6	49667	5560.070976768337	0.070976768337
6	49783	5580.073536768337	0.073536768337
6	49897	5600.073536768337	0.073536768337
6	50007	5620.069056768337	0.069056768337
6	50125	5640.070656768337	0.070656768337
6	50235	5660.069696768337	0.069696768337
6	50351	5680.069376768337	0.069376768337
6	50465	5700.069056768337	0.069056768337
6	50577	5720.072896768337	0.072896768337
6	50691	5740.071936768337	0.071936768337
6	50807	5760.071296768337	0.071296768337
6	50919	5780.072256768337	0.072256768337
6	51033	5800.070336768337	0.070336768337
6	51147	5820.070336768337	0.070336768337
6	51259	5840.069696768337	0.069696768337
6	51373	5860.070656768337	0.070656768337
6	51491	5880.072896768337	0.072896768337
6	51601	5900.072896768337	0.072896768337
6	51715	5920.070016768337	0.070016768337
6	51829	5940.070336768337	0.070336768337
6	51943	5960.070016768337	0.070016768337
6	52055	5980.069376768337	0.069376768337
6	52173	6000.072256768337	0.072256768337
6	52283	6020.073536768337	0.073536768337
6	52397	6040.070336768337	0.070336768337
6	52513	6060.071296768337	0.071296768337
6	52625	6080.069696768337	0.069696768337
6	52739	6100.070976768337	0.070976768337
6	52853	6120.070336768337	0.070336768337
6	52965	6140.072896768337	0.072896768337
6	53081	6160.071616768337	0.071616768337
6	53195	6180.071616768337	0.071616768337
6	53309	6200.070656768337	0.070656768337
6	53419	6220.071616768337	0.071616768337
6	53537	6240.068416768337	0.068416768337
6	53647	6260.071616768337	0.071616768337
6	53763	6280.072896768337	0.072896768337
6	53879	6300.068416768337	0.068416768337
6	53989	6320.072576768337	0.072576768337
6	54103	6340.074496768337	0.074496768337
6	54219	6360.072256768337	0.072256768337
6	54331	6380.068736768337	0.068736768337
6	54445	6400.071296768337	0.071296768337
6	54559	6420.070976768337	0.070976768337
6	54673	6440.070016768337	0.070016768337
6	54785	6460.070976768337	0.070976768337
6	54903	6480.072576768337	0.072576768337
6	55013	6500.068736768337	0.068736768337
6	55127	6520.073216768337	0.073216768337
6	55241	6540.072896768337	0.072896768337
6	55355	6560.069376768337	0.069376768337
6	55469	6580.072256768337	0.072256768337
6	55585	6600.070976768337	0.070976768337
6	55695	6620.071936768337	0.071936768337
6	55809	6640.073216768337	0.073216768337
6	55925	6660.069376768337	0.069376768337
6	56037	6680.072576768337	0.072576768337
6	56151	6700.070656768337	0.070656768337
6	56267	6720.069696768337	0.069696768337
6	56377	6740.070016768337	0.070016768337
6	56493	6760.070336768337	0.070336768337
6	56607	6780.071936768337	0.071936768337
6	56721	6800.070976768337	0.070976768337
6	56831	6820.074176768337	0.074176768337
6	56949	6840.070976768337	0.070976768337
6	57061	6860.071616768337	0.071616768337
6	57175	6880.072576768337	0.072576768337
6	57291	6900.072896768337	0.072896768337
6	57401	6920.070016768337	0.070016768337
6	57515	6940.070976768337	0.070976768337
6	57631	6960.072256768337	0.072256768337
6	57743	6980.069376768337	0.069376768337
6	57859	7000.071936768337	0.071936768337
6	57971	7020.072256768337	0.072256768337
6	58085	7040.069376768337	0.069376768337
6	58197	7060.069056768337	0.069056768337
6	58315	7080.070976768337	0.070976768337
6	58425	7100.069056768337	0.069056768337
6	58539	7120.072576768337	0.072576768337
6	58655	7140.068416768337	0.068416768337
6	58767	7160.071936768337	0.071936768337
6	58881	7180.071616768337	0.071616768337
6	58997	7200.068736768337	0.068736768337
6	59107	7220.070656768337	0.070656768337
6	59221	7240.071616768337	0.071616768337
6	59337	7260.069056768337	0.069056768337
6	59451	7280.075136768337	0.075136768337
6	59563	7300.070656768337	0.070656768337
6	59679	7320.070976768337	0.070976768337
6	59789	7340.071936768337	0.071936768337
6	59905	7360.073856768337	0.073856768337
6	60019	7380.069376768337	0.069376768337
6	60133	7400.073856768337	0.073856768337
6	60245	7420.071616768337	0.071616768337
6	60361	7440.071296768337	0.071296768337
6	60473	7460.071936768337	0.071936768337
6	60587	7480.073216768337	0.073216768337
6	60703	7500.072256768337	0.072256768337
6	60813	7520.069376768337	0.069376768337
6	60927	7540.071936768337	0.071936768337
6	61045	7560.073216768337	0.073216768337
6	61155	7580.071936768337	0.071936768337
6	61271	7600.071616768337	0.071616768337
6	61383	7620.068736768337	0.068736768337
6	61497	7640.070976768337	0.070976768337
6	61609	7660.072576768337	0.072576768337
6	61727	7680.070976768337	0.070976768337
6	61839	7700.073216768337	0.073216768337
6	61951	7720.071616768337	0.071616768337
6	62067	7740.070656768337	0.070656768337
6	62179	7760.072576768337	0.072576768337
6	62293	7780.072576768337	0.072576768337
6	62409	7800.071936768337	0.071936768337
6	62519	7820.070336768337	0.070336768337
6	62635	7840.068416768337	0.068416768337
6	62749	7860.074496768337	0.074496768337
6	62863	7880.070336768337	0.070336768337
6	62975	7900.070016768337	0.070016768337
6	63091	7920.070976768337	0.070976768337
6	63201	7940.074176768337	0.074176768337
6	63317	7960.071296768337	0.071296768337
6	63433	7980.070976768337	0.070976768337
6	63545	8000.071296768337	0.071296768337
6	63657	8020.070016768337	0.070016768337
6	63773	8040.071616768337	0.071616768337
6	63885	8060.071296768337	0.071296768337
6	63999	8080.073856768337	0.073856768337
6	64115	8100.070976768337	0.070976768337
6	64227	8120.071616768337	0.071616768337
6	64339	8140.072256768337	0.072256768337
6	64457	8160.072256768337	0.072256768337
6	64567	8180.070336768337	0.070336768337
6	64683	8200.072896768337	0.072896768337
6	64795	8220.070336768337	0.070336768337
6	64909	8240.070336768337	0.070336768337
6	65023	8260.071616768337	0.071616768337
6	65139	8280.071296768337	0.071296768337
6	65251	8300.072256768337	0.072256768337
6	65363	8320.070656768337	0.070656768337
6	65479	8340.071296768337	0.071296768337
6	65591	8360.072576768337	0.072576768337
6	65705	8380.072896768337	0.072896768337
6	65823	8400.072256768337	0.072256768337
6	65931	8420.070976768337	0.070976768337
6	66047	8440.071616768337	0.071616768337
6	66161	8460.069376768337	0.069376768337
6	66275	8480.069376768337	0.069376768337
6	66387	8500.070656768337	0.070656768337
6	66503	8520.070016768337	0.070016768337
6	66615	8540.071616768337	0.071616768337
6	66729	8560.070016768337	0.070016768337
6	66845	8580.071936768337	0.071936768337
6	66957	8600.070656768337	0.070656768337
6	67069	8620.068416768337	0.068416768337
6	67185	8640.070336768337	0.070336768337
6	67297	8660.070336768337	0.070336768337
6	67413	8680.072896768337	0.072896768337
6	67527	8700.071936768337	0.071936768337
6	67639	8720.073536768337	0.073536768337
6	67751	8740.070016768337	0.070016768337
6	67869	8760.070336768337	0.070336768337
6	67979	8780.070656768337	0.070656768337
6	68095	8800.068416768337	0.068416768337
6	68209	8820.072256768337	0.072256768337
6	68321	8840.071616768337	0.071616768337
6	68435	8860.071616768337	0.071616768337
6	68551	8880.070656768337	0.070656768337
6	68663	8900.073216768337	0.073216768337
6	68775	8920.069376768337	0.069376768337
6	68891	8940.069376768337	0.069376768337
6	69005	8960.072576768337	0.072576768337
6	69117	8980.070656768337	0.070656768337
6	69235	9000.072576768337	0.072576768337
6	69343	9020.070016768337	0.070016768337
6	69459	9040.070336768337	0.070336768337
6	69573	9060.069376768337	0.069376768337
6	69687	9080.070016768337	0.070016768337
6	69801	9100.070976768337	0.070976768337
6	69915	9120.070976768337	0.070976768337
6	70027	9140.070016768337	0.070016768337
6	70141	9160.069056768337	0.069056768337
6	70257	9180.073216768337	0.073216768337
6	70369	9200.070336768337	0.070336768337
6	70481	9220.072576768337	0.072576768337
6	70599	9240.071296768337	0.071296768337
6	70709	9260.070016768337	0.070016768337
6	70825	9280.073536768337	0.073536768337
6	70939	9300.070336768337	0.070336768337
6	71051	9320.073536768337	0.073536768337
6	71163	9340.071616768337	0.071616768337
6	71281	9360.073536768337	0.073536768337
6	71393	9380.070016768337	0.070016768337
6	71507	9400.073216768337	0.073216768337
6	71621	9420.072256768337	0.072256768337
6	71733	9440.068736768337	0.068736768337
6	71847	9460.072256768337	0.072256768337
6	71963	9480.073216768337	0.073216768337
6	72075	9500.071936768337	0.071936768337
6	72189	9520.072576768337	0.072576768337
6	72303	9540.070976768337	0.070976768337
6	72417	9560.073536768337	0.073536768337
6	72529	9580.069696768337	0.069696768337
6	72647	9600.070016768337	0.070016768337
6	72755	9620.070976768337	0.070976768337
6	72871	9640.074816768337	0.074816768337
6	72987	9660.070656768337	0.070656768337
6	73099	9680.069696768337	0.069696768337
6	73213	9700.068416768337	0.068416768337
6	73327	9720.072896768337	0.072896768337
6	73439	9740.072576768337	0.072576768337
6	73553	9760.070976768337	0.070976768337
6	73669	9780.069696768337	0.069696768337
6	73783	9800.070016768337	0.070016768337
6	73893	9820.072256768337	0.072256768337
6	74011	9840.072256768337	0.072256768337
6	74121	9860.070976768337	0.070976768337
6	74237	9880.070656768337	0.070656768337
6	74351	9900.070656768337	0.070656768337
6	74463	9920.070976768337	0.070976768337
6	74577	9940.069376768337	0.069376768337
6	74693	9960.070976768337	0.070976768337
6	74805	9980.072576768337	0.072576768337
6	74919	10000.068096768337	0.068096768337
6	75033	10020.069376768337	0.069376768337
6	75145	10040.072256768337	0.072256768337
6	75259	10060.070976768337	0.070976768337
6	75377	10080.071616768337	0.071616768337
6	75487	10100.070976768337	0.070976768337
6	75601	10120.069056768337	0.069056768337
6	75715	10140.070336768337	0.070336768337
6	75829	10160.071616768337	0.071616768337
6	75941	10180.071296768337	0.071296768337
6	76059	10200.069696768337	0.069696768337
6	76169	10220.070336768337	0.070336768337
6	76283	10240.071296768337	0.071296768337
6	76399	10260.073536768337	0.073536768337
6	76511	10280.071296768337	0.071296768337
6	76625	10300.070656768337	0.070656768337
6	76739	10320.070016768337	0.070016768337
6	76851	10340.071936768337	0.071936768337
6	76967	10360.071296768337	0.071296768337
6	77081	10380.072576768337	0.072576768337
6	77195	10400.072256768337	0.072256768337
6	77305	10420.072256768337	0.072256768337
6	77423	10440.070016768337	0.070016768337
6	77533	10460.070336768337	0.070336768337
6	77649	10480.070656768337	0.070656768337
6	77765	10500.071296768337	0.071296768337
6	77875	10520.069696768337	0.069696768337
6	77989	10540.072576768337	0.072576768337
6	78105	10560.072896768337	0.072896768337
6	78217	10580.069696768337	0.069696768337
6	78331	10600.069696768337	0.069696768337
6	78445	10620.073536768337	0.073536768337
6	78559	10640.069376768337	0.069376768337
6	78671	10660.070976768337	0.070976768337
6	78789	10680.071616768337	0.071616768337
6	78899	10700.071936768337	0.071936768337
6	79013	10720.071616768337	0.071616768337
6	79127	10740.071936768337	0.071936768337
6	79241	10760.073216768337	0.073216768337
6	79355	10780.068416768337	0.068416768337
6	79471	10800.071296768337	0.071296768337
6	79581	10820.075456768337	0.075456768337
6	79695	10840.070016768337	0.070016768337
6	79811	10860.072256768337	0.072256768337
6	79923	10880.072896768337	0.072896768337
6	80037	10900.070976768337	0.070976768337
6	80153	10920.071936768337	0.071936768337
6	80263	10940.071616768337	0.071616768337
6	80379	10960.072576768337	0.072576768337
6	80493	10980.072256768337	0.072256768337
6	80607	11000.072576768337	0.072576768337
6	80717	11020.073536768337	0.073536768337
6	80835	11040.069056768337	0.069056768337
6	80947	11060.070336768337	0.070336768337
6	81061	11080.068736768337	0.068736768337
6	81177	11100.068416768337	0.068416768337
6	81287	11120.071296768337	0.071296768337
6	81401	11140.071296768337	0.071296768337
6	81517	11160.072896768337	0.072896768337
6	81629	11180.069696768337	0.069696768337
6	81745	11200.072256768337	0.072256768337
6	81857	11220.074496768337	0.074496768337
6	81971	11240.071936768337	0.071936768337
6	82083	11260.074176768337	0.074176768337
6	82201	11280.071616768337	0.071616768337
6	82311	11300.071616768337	0.071616768337
6	82425	11320.073856768337	0.073856768337
6	82541	11340.073216768337	0.073216768337
6	82653	11360.072576768337	0.072576768337
6	82767	11380.070976768337	0.070976768337
6	82883	11400.072256768337	0.072256768337
6	82993	11420.069056768337	0.069056768337
6	83107	11440.072896768337	0.072896768337
6	83223	11460.070656768337	0.070656768337
6	83337	11480.071296768337	0.071296768337
6	83449	11500.070336768337	0.070336768337
6	83565	11520.071296768337	0.071296768337
6	83675	11540.074816768337	0.074816768337
6	83791	11560.069376768337	0.069376768337
6	83905	11580.070016768337	0.070016768337
6	84019	11600.070336768337	0.070336768337
6	84131	11620.070336768337	0.070336768337
6	84247	11640.068736768337	0.068736768337
6	84359	11660.070976768337	0.070976768337
6	84473	11680.069696768337	0.069696768337
6	84589	11700.073536768337	0.073536768337
6	84699	11720.071936768337	0.071936768337
6	84813	11740.071616768337	0.071616768337
6	84931	11760.073216768337	0.073216768337
6	85041	11780.070656768337	0.070656768337
6	85157	11800.072256768337	0.072256768337
6	85269	11820.071296768337	0.071296768337
6	85383	11840.073856768337	0.073856768337
6	85495	11860.072256768337	0.072256768337
6	85613	11880.070976768337	0.070976768337
6	85725	11900.072256768337	0.072256768337
6	85837	11920.073856768337	0.073856768337
6	85953	11940.073216768337	0.073216768337
6	86065	11960.071936768337	0.071936768337
6	86179	11980.070016768337	0.070016768337
6	86295	12000.069696768337	0.069696768337
6	86405	12020.070976768337	0.070976768337
6	86521	12040.069056768337	0.069056768337
6	86635	12060.070016768337	0.070016768337
6	86749	12080.068416768337	0.068416768337
6	86861	12100.071936768337	0.071936768337
6	86977	12120.072576768337	0.072576768337
6	87087	12140.075456768337	0.075456768337
6	87203	12160.069696768337	0.069696768337
6	87319	12180.070336768337	0.070336768337
6	87431	12200.070976768337	0.070976768337
6	87543	12220.069696768337	0.069696768337
6	87659	12240.071616768337	0.071616768337
6	87771	12260.070976768337	0.070976768337
6	87885	12280.071296768337	0.071296768337
6	88001	12300.071296768337	0.071296768337
6	88113	12320.071616768337	0.071616768337
6	88225	12340.071936768337	0.071936768337
6	88343	12360.072256768337	0.072256768337
6	88453	12380.070336768337	0.070336768337
6	88569	12400.072256768337	0.072256768337
6	88681	12420.072256768337	0.072256768337
6	88795	12440.075136768337	0.075136768337
6	88909	12460.068416768337	0.068416768337
6	89025	12480.071616768337	0.071616768337
6	89137	12500.074816768337	0.074816768337
6	89249	12520.071296768337	0.071296768337
6	89365	12540.070656768337	0.070656768337
6	89477	12560.070016768337	0.070016768337
6	89591	12580.069376768337	0.069376768337
6	89709	12600.068416768337	0.068416768337
6	89817	12620.072576768337	0.072576768337
6	89933	12640.069056768337	0.069056768337
6	90047	12660.071616768337	0.071616768337
6	90161	12680.073216768337	0.073216768337
6	90273	12700.071296768337	0.071296768337
6	90389	12720.072256768337	0.072256768337
6	90501	12740.072256768337	0.072256768337
6	90615	12760.073216768337	0.073216768337
6	90731	12780.071616768337	0.071616768337
6	90843	12800.071616768337	0.071616768337
6	90955	12820.071936768337	0.071936768337
6	91071	12840.071616768337	0.071616768337
6	91183	12860.070336768337	0.070336768337
6	91299	12880.070976768337	0.070976768337
6	91413	12900.071296768337	0.071296768337
6	91525	12920.069056768337	0.069056768337
6	91637	12940.072896768337	0.072896768337
6	91755	12960.072256768337	0.072256768337
6	91865	12980.070336768337	0.070336768337
6	91981	13000.071936768337	0.071936768337
6	92095	13020.069056768337	0.069056768337
6	92207	13040.072896768337	0.072896768337
6	92321	13060.068736768337	0.068736768337
6	92437	13080.071296768337	0.071296768337
6	92549	13100.072896768337	0.072896768337
6	92661	13120.069696768337	0.069696768337
6	92777	13140.072576768337	0.072576768337
6	92891	13160.073216768337	0.073216768337
6	93003	13180.071616768337	0.071616768337
6	93121	13200.072576768337	0.072576768337
6	93229	13220.069056768337	0.069056768337
6	93345	13240.070336768337	0.070336768337
6	93459	13260.071936768337	0.071936768337
6	93573	13280.074816768337	0.074816768337
6	93687	13300.070656768337	0.070656768337
6	93801	13320.070976768337	0.070976768337
6	93913	13340.070656768337	0.070656768337
6	94027	13360.070336768337	0.070336768337
6	94143	13380.070016768337	0.070016768337
6	94255	13400.072256768337	0.072256768337
6	94367	13420.071616768337	0.071616768337
6	94485	13440.070976768337	0.070976768337
6	94595	13460.070656768337	0.070656768337
6	94711	13480.072576768337	0.072576768337
6	94825	13500.070016768337	0.070016768337
6	94937	13520.070976768337	0.070976768337
6	95049	13540.068736768337	0.068736768337
6	95167	13560.070336768337	0.070336768337
6	95279	13580.071296768337	0.071296768337
6	95393	13600.070656768337	0.070656768337
6	95507	13620.071296768337	0.071296768337
6	95619	13640.072256768337	0.072256768337
6	95733	13660.071296768337	0.071296768337
6	95849	13680.070976768337	0.070976768337
6	95961	13700.068736768337	0.068736768337
6	96075	13720.072256768337	0.072256768337
6	96189	13740.070336768337	0.070336768337
6	96303	13760.070656768337	0.070656768337
6	96415	13780.071616768337	0.071616768337
6	96533	13800.071296768337	0.071296768337
6	96641	13820.070656768337	0.070656768337
6	96757	13840.071616768337	0.071616768337
6	96873	13860.072256768337	0.072256768337
6	96985	13880.072896768337	0.072896768337
6	97099	13900.070976768337	0.070976768337
6	97213	13920.071936768337	0.071936768337
6	97325	13940.070336768337	0.070336768337
6	97439	13960.070656768337	0.070656768337
6	97555	13980.070016768337	0.070016768337
6	97669	14000.072896768337	0.072896768337
6	97779	14020.069696768337	0.069696768337
6	97897	14040.067456768337	0.067456768337
6	98007	14060.070336768337	0.070336768337
6	98123	14080.069696768337	0.069696768337
6	98237	14100.071616768337	0.071616768337
6	98349	14120.070976768337	0.070976768337
6	98463	14140.071936768337	0.071936768337
6	98579	14160.071296768337	0.071296768337
6	98691	14180.070976768337	0.070976768337
6	98805	14200.070336768337	0.070336768337
6	98919	14220.072256768337	0.072256768337
6	99031	14240.070016768337	0.070016768337
6	99145	14260.072256768337	0.072256768337
6	99263	14280.070656768337	0.070656768337
6	99373	14300.069056768337	0.069056768337
6	99487	14320.070656768337	0.070656768337
6	99601	14340.071296768337	0.071296768337
6	99715	14360.073216768337	0.073216768337
6	99827	14380.069056768337	0.069056768337
6	99945	14400.071616768337	0.071616768337
6	100055	14420.071936768337	0.071936768337
6	100169	14440.070976768337	0.070976768337
6	100285	14460.073216768337	0.073216768337
6	100397	14480.071296768337	0.071296768337
6	100511	14500.068416768337	0.068416768337
6	100625	14520.072256768337	0.072256768337
6	100737	14540.071936768337	0.071936768337
6	100853	14560.070016768337	0.070016768337
6	100967	14580.070656768337	0.070656768337
6	101081	14600.071936768337	0.071936768337
6	101191	14620.071936768337	0.071936768337
6	101309	14640.068736768337	0.068736768337
6	101419	14660.069056768337	0.069056768337
6	101535	14680.072256768337	0.072256768337
6	101651	14700.072896768337	0.072896768337
6	101761	14720.071616768337	0.071616768337
6	101875	14740.069696768337	0.069696768337
6	101991	14760.072576768337	0.072576768337
6	102103	14780.070016768337	0.070016768337
6	102217	14800.070656768337	0.070656768337
6	102331	14820.074176768337	0.074176768337
6	102445	14840.070336768337	0.070336768337
6	102557	14860.072256768337	0.072256768337
6	102675	14880.072576768337	0.072576768337
6	102785	14900.071296768337	0.071296768337
6	102899	14920.072576768337	0.072576768337
6	103013	14940.070976768337	0.070976768337
6	103127	14960.070976768337	0.070976768337
6	103241	14980.071936768337	0.071936768337
6	103357	15000.070336768337	0.070336768337
6	103467	15020.072576768337	0.072576768337
6	103581	15040.072256768337	0.072256768337
6	103697	15060.069056768337	0.069056768337
6	103809	15080.071296768337	0.071296768337
6	103923	15100.070336768337	0.070336768337
6	104039	15120.072896768337	0.072896768337
6	104149	15140.073856768337	0.073856768337
6	104265	15160.072896768337	0.072896768337
6	104379	15180.068096768337	0.068096768337
6	104493	15200.069376768337	0.069376768337
6	104603	15220.068096768337	0.068096768337
6	104721	15240.072576768337	0.072576768337
6	104833	15260.071936768337	0.071936768337
6	104947	15280.070976768337	0.070976768337
6	105063	15300.070656768337	0.070656768337
6	105173	15320.072896768337	0.072896768337
6	105287	15340.069696768337	0.069696768337
6	105403	15360.070336768337	0.070336768337
6	105515	15380.071296768337	0.071296768337
6	105631	15400.068736768337	0.068736768337
6	105743	15420.071296768337	0.071296768337
6	105857	15440.069696768337	0.069696768337
6	105969	15460.071296768337	0.071296768337
6	106087	15480.072256768337	0.072256768337
6	106197	15500.071296768337	0.071296768337
6	106311	15520.071616768337	0.071616768337
6	106427	15540.073856768337	0.073856768337
6	106539	15560.072896768337	0.072896768337
6	106653	15580.071616768337	0.071616768337
6	106769	15600.068416768337	0.068416768337
6	106879	15620.073216768337	0.073216768337
6	106993	15640.072576768337	0.072576768337
6	107109	15660.068736768337	0.068736768337
6	107223	15680.073216768337	0.073216768337
6	107335	15700.070336768337	0.070336768337
6	107451	15720.072256768337	0.072256768337
6	107561	15740.068736768337	0.068736768337
6	107677	15760.070976768337	0.070976768337
6	107791	15780.072576768337	0.072576768337
6	107905	15800.071936768337	0.071936768337
6	108017	15820.071936768337	0.071936768337
6	108133	15840.071296768337	0.071296768337
6	108245	15860.074816768337	0.074816768337
6	108359	15880.069696768337	0.069696768337
6	108475	15900.070336768337	0.070336768337
6	108585	15920.073216768337	0.073216768337
6	108699	15940.071296768337	0.071296768337
6	108817	15960.070016768337	0.070016768337
6	108927	15980.073536768337	0.073536768337
6	109043	16000.070016768337	0.070016768337
6	109155	16020.071936768337	0.071936768337
6	109269	16040.069376768337	0.069376768337
6	109381	16060.070976768337	0.070976768337
6	109499	16080.070976768337	0.070976768337
6	109611	16100.070656768337	0.070656768337
6	109723	16120.071616768337	0.071616768337
6	109839	16140.072896768337	0.072896768337
6	109951	16160.071936768337	0.071936768337
6	110065	16180.072576768337	0.072576768337
6	110181	16200.071936768337	0.071936768337
6	110291	16220.073536768337	0.073536768337
6	110407	16240.070976768337	0.070976768337
6	110521	16260.070016768337	0.070016768337
6	110635	16280.072576768337	0.072576768337
6	110747	16300.070976768337	0.070976768337
6	110863	16320.072256768337	0.072256768337
6	110973	16340.069696768337	0.069696768337
6	111089	16360.072896768337	0.072896768337
6	111205	16380.073216768337	0.073216768337
6	111317	16400.069376768337	0.069376768337
6	111429	16420.072576768337	0.072576768337
6	111545	16440.072896768337	0.072896768337
6	111657	16460.069696768337	0.069696768337
6	111771	16480.072256768337	0.072256768337
6	111887	16500.070656768337	0.070656768337
6	111999	16520.072576768337	0.072576768337
6	112111	16540.072896768337	0.072896768337
6	112229	16560.070656768337	0.070656768337
6	112339	16580.072256768337	0.072256768337
6	112455	16600.070976768337	0.070976768337
6	112567	16620.070016768337	0.070016768337
6	112681	16640.070976768337	0.070976768337
6	112795	16660.071616768337	0.071616768337
6	112911	16680.070016768337	0.070016768337
6	113023	16700.069056768337	0.069056768337
6	113135	16720.070976768337	0.070976768337
6	113251	16740.073856768337	0.073856768337
6	113363	16760.071296768337	0.071296768337
6	113477	16780.071616768337	0.071616768337
6	113595	16800.067776768337	0.067776768337
6	113703	16820.073216768337	0.073216768337
6	113819	16840.071616768337	0.071616768337
6	113933	16860.073536768337	0.073536768337
6	114047	16880.072256768337	0.072256768337
6	114159	16900.069696768337	0.069696768337
6	114275	16920.069376768337	0.069376768337
6	114387	16940.069376768337	0.069376768337
6	114501	16960.073536768337	0.073536768337
6	114617	16980.072576768337	0.072576768337
6	114729	17000.068416768337	0.068416768337
6	114841	17020.070976768337	0.070976768337
6	114957	17040.072256768337	0.072256768337
6	115069	17060.074496768337	0.074496768337
6	115185	17080.071616768337	0.071616768337
6	115299	17100.073216768337	0.073216768337
6	115411	17120.070016768337	0.070016768337
6	115523	17140.071296768337	0.071296768337
6	115641	17160.072256768337	0.072256768337
6	115751	17180.070976768337	0.070976768337
6	115867	17200.070336768337	0.070336768337
6	115981	17220.070656768337	0.070656768337
6	116093	17240.070336768337	0.070336768337
6	116207	17260.069696768337	0.069696768337
6	116323	17280.071616768337	0.071616768337
6	116435	17300.069056768337	0.069056768337
6	116547	17320.073216768337	0.073216768337
6	116663	17340.071296768337	0.071296768337
6	116777	17360.072896768337	0.072896768337
6	116889	17380.071616768337	0.071616768337
6	117007	17400.070976768337	0.070976768337
6	117115	17420.072576768337	0.072576768337
6	117231	17440.070336768337	0.070336768337
6	117345	17460.073536768337	0.073536768337
6	117459	17480.073536768337	0.073536768337
6	117573	17500.072256768337	0.072256768337
6	117687	17520.070976768337	0.070976768337
6	117799	17540.073856768337	0.073856768337
6	117913	17560.070016768337	0.070016768337
6	118029	17580.069376768337	0.069376768337
6	118141	17600.070976768337	0.070976768337
6	118253	17620.070336768337	0.070336768337
6	118371	17640.070336768337	0.070336768337
6	118481	17660.073536768337	0.073536768337
6	118597	17680.069696768337	0.069696768337
6	118711	17700.071936768337	0.071936768337
6	118823	17720.071296768337	0.071296768337
6	118935	17740.072576768337	0.072576768337
6	119053	17760.071296768337	0.071296768337
6	119165	17780.072256768337	0.072256768337
6	119279	17800.070656768337	0.070656768337
6	119393	17820.071936768337	0.071936768337
6	119505	17840.074176768337	0.074176768337
6	119619	17860.070336768337	0.070336768337
6	119735	17880.069056768337	0.069056768337
6	119847	17900.073536768337	0.073536768337
6	119961	17920.070016768337	0.070016768337
6	120075	17940.068096768337	0.068096768337
6	120189	17960.071296768337	0.071296768337
6	120301	17980.072576768337	0.072576768337
6	120419	18000.073856768337	0.073856768337
6	120527	18020.072576768337	0.072576768337
6	120643	18040.070976768337	0.070976768337
6	120759	18060.073856768337	0.073856768337
6	120871	18080.070976768337	0.070976768337
6	120985	18100.071616768337	0.071616768337
6	121099	18120.071616768337	0.071616768337
6	121211	18140.070336768337	0.070336768337
6	121325	18160.070976768337	0.070976768337
6	121441	18180.073216768337	0.073216768337
6	121555	18200.072896768337	0.072896768337
6	121665	18220.069696768337	0.069696768337
6	121783	18240.073536768337	0.073536768337
6	121893	18260.072256768337	0.072256768337
6	122009	18280.069056768337	0.069056768337
6	122123	18300.071616768337	0.071616768337
6	122235	18320.071936768337	0.071936768337
6	122349	18340.073536768337	0.073536768337
6	122465	18360.069696768337	0.069696768337
6	122577	18380.070016768337	0.070016768337
6	122691	18400.070656768337	0.070656768337
6	122805	18420.070976768337	0.070976768337
6	122917	18440.073536768337	0.073536768337
6	123031	18460.069376768337	0.069376768337
6	123149	18480.071616768337	0.071616768337
6	123259	18500.072896768337	0.072896768337
6	123373	18520.073536768337	0.073536768337
6	123487	18540.072896768337	0.072896768337
6	123601	18560.072896768337	0.072896768337
6	123713	18580.073856768337	0.073856768337
6	123831	18600.071616768337	0.071616768337
6	123941	18620.071616768337	0.071616768337
6	124055	18640.072256768337	0.072256768337
6	124171	18660.071936768337	0.071936768337
6	124283	18680.072576768337	0.072576768337
6	124397	18700.069376768337	0.069376768337
6	124511	18720.072256768337	0.072256768337
6	124623	18740.071936768337	0.071936768337
6	124739	18760.069056768337	0.069056768337
6	124853	18780.069696768337	0.069696768337
6	124967	18800.068736768337	0.068736768337
6	125077	18820.072256768337	0.072256768337
6	125195	18840.071296768337	0.071296768337
6	125305	18860.072256768337	0.072256768337
6	125421	18880.070016768337	0.070016768337
6	125537	18900.070976768337	0.070976768337
6	125647	18920.070656768337	0.070656768337
6	125761	18940.070016768337	0.070016768337
6	125877	18960.072256768337	0.072256768337
6	125989	18980.071616768337	0.071616768337
6	126103	19000.070016768337	0.070016768337
6	126217	19020.071936768337	0.071936768337
6	126331	19040.070016768337	0.070016768337
6	126443	19060.070336768337	0.070336768337
6	126561	19080.071936768337	0.071936768337
6	126671	19100.069696768337	0.069696768337
6	126785	19120.070336768337	0.070336768337
6	126899	19140.070336768337	0.070336768337
6	127013	19160.072256768337	0.072256768337
6	127127	19180.069696768337	0.069696768337
6	127243	19200.069376768337	0.069376768337
6	127353	19220.074816768337	0.074816768337
6	127467	19240.072896768337	0.072896768337
6	127583	19260.068736768337	0.068736768337
6	127695	19280.070336768337	0.070336768337
6	127809	19300.070016768337	0.070016768337
6	127925	19320.073216768337	0.073216768337
6	128035	19340.071296768337	0.071296768337
6	128151	19360.070336768337	0.070336768337
6	128265	19380.070016768337	0.070016768337
6	128379	19400.069056768337	0.069056768337
6	128489	19420.069376768337	0.069376768337
6	128607	19440.071616768337	0.071616768337
6	128719	19460.071936768337	0.071936768337
6	128833	19480.071936768337	0.071936768337
6	128949	19500.069376768337	0.069376768337
6	129059	19520.070656768337	0.070656768337
6	129173	19540.070656768337	0.070656768337
6	129289	19560.071936768337	0.071936768337
6	129401	19580.068096768337	0.068096768337
6	129517	19600.071296768337	0.071296768337
6	129629	19620.071936768337	0.071936768337
6	129743	19640.072896768337	0.072896768337
6	129855	19660.073216768337	0.073216768337
6	129973	19680.071936768337	0.071936768337
6	130083	19700.070336768337	0.070336768337
6	130197	19720.069696768337	0.069696768337
6	130313	19740.072256768337	0.072256768337
6	130425	19760.070336768337	0.070336768337
6	130539	19780.071296768337	0.071296768337
6	130655	19800.072256768337	0.072256768337
6	130765	19820.070016768337	0.070016768337
6	130879	19840.070336768337	0.070336768337
6	130995	19860.071936768337	0.071936768337
6	131109	19880.070976768337	0.070976768337
6	131221	19900.070976768337	0.070976768337
6	131337	19920.071616768337	0.071616768337
6	131447	19940.069056768337	0.069056768337
6	131563	19960.073216768337	0.073216768337
6	131677	19980.070976768337	0.070976768337
6	131791	20000.070656768337	0.070656768337
6	131903	20020.072896768337	0.072896768337
6	132019	20040.069056768337	0.069056768337
6	132131	20060.074176768337	0.074176768337
6	132245	20080.073856768337	0.073856768337
6	132361	20100.071616768337	0.071616768337
6	132471	20120.069376768337	0.069376768337
6	132585	20140.071296768337	0.071296768337
6	132703	20160.070016768337	0.070016768337
6	132813	20180.070336768337	0.070336768337
6	132929	20200.070016768337	0.070016768337
6	133041	20220.071296768337	0.071296768337
6	133155	20240.073536768337	0.073536768337
6	133267	20260.072576768337	0.072576768337
6	133385	20280.072576768337	0.072576768337
6	133497	20300.070656768337	0.070656768337
6	133609	20320.070656768337	0.070656768337
6	133725	20340.073856768337	0.073856768337
6	133837	20360.069376768337	0.069376768337
6	133951	20380.069696768337	0.069696768337
6	134067	20400.070656768337	0.070656768337
6	134177	20420.070016768337	0.070016768337
6	134293	20440.070336768337	0.070336768337
6	134407	20460.072256768337	0.072256768337
6	134521	20480.071616768337	0.071616768337
6	134633	20500.072256768337	0.072256768337
6	134749	20520.073216768337	0.073216768337
6	134859	20540.073536768337	0.073536768337
6	134975	20560.071616768337	0.071616768337
6	135091	20580.070016768337	0.070016768337
6	135203	20600.070656768337	0.070656768337
6	135315	20620.069056768337	0.069056768337
7	0	0	0
7	0	0	2
7	23	0.000128	3
7	81	0.016704	2
7	283	0.068993073337	3
7	325	0.085569073337	2
7	863	0.220482658424	3
7	906	0.237058658424	2
7	917	0.237186658424	3
7	947	0.253762658424	2
7	1094	0.289667178824	3
7	1137	0.306243178824	2
7	1246	0.342466340729	3
7	1291	0.359042340729	2
7	1386	0.377474835385	3
7	1439	0.394050835385	2
7	1549	0.411843355785	3
7	1591	0.428419355785	2
7	1828	0.480642985295	3
7	1862	0.497218985295	2
7	2004	0.531842985295	3
7	2033	0.548418985295	2
7	2328	0.635458985295	3
7	2352	0.652034985295	2
7	2790	0.772804151577	3
7	2820	0.789380151577	2
7	3892	1.079045760093	3
7	3945	1.095621760093	2
7	4014	1.115077720649	3
7	4045	1.131653720649	2
7	4421	1.235271086325	3
7	4445	1.251847086325	2
7	4542	1.270919606725	3
7	4567	1.287495606725	2
7	4803	1.338824211727	3
7	4852	1.355400211727	2
7	4860	1.356168211727	3
7	4874	1.372744211727	2
7	5239	1.477258022575	3
7	5278	1.493834022575	2
7	5373	1.511306634309	3
7	5418	1.527882634309	2
7	5567	1.561739562988	3
7	5624	1.578315562988	2
7	5710	1.596428083388	3
7	5740	1.613004083388	2
7	5952	1.665612695122	3
7	5979	1.682188695122	2
7	6090	1.700301300124	3
7	6113	1.716877300124	2
7	6421	1.788813820524	3
7	6452	1.805389820524	2
7	6818	1.895500722913	3
7	6828	1.912076722913	2
7	7398	2.070798211445	3
7	7424	2.087374211445	2
7	7509	2.105166823179	3
7	7528	2.121742823179	2
7	7727	2.174479434913	3
7	7760	2.191055434913	2
7	8287	2.330190764644	3
7	8348	2.346766764644	2
7	8690	2.434446764644	3
7	8711	2.451022764644	2
7	8970	2.520270764644	3
7	8998	2.536846764644	2
7	9260	2.605902764644	3
7	9285	2.622478764644	2
7	9573	2.691726764644	3
7	9628	2.708302764644	2
7	9639	2.709070764644	3
7	9677	2.725646764644	2
7	10036	2.831695376378	3
7	10089	2.848271376378	2
7	10261	2.882895376378	3
7	10284	2.899471376378	2
7	10312	2.899599376378	3
7	10371	2.916175376378	2
7	10488	2.952592002707	3
7	10519	2.969168002707	2
7	10632	3.00359978214	3
7	10696	3.02017578214	2
7	11032	3.106192408469	3
7	11066	3.122768408469	2
7	11310	3.191057013471	3
7	11335	3.207633013471	2
7	11421	3.225425731147	3
7	11452	3.242001731147	2
7	11595	3.277458448823	3
7	11631	3.294034448823	2
7	12121	3.432018969223	3
7	12170	3.448594969223	2
7	12289	3.484051595552	3
7	12329	3.500627595552	2
7	12404	3.51931178214	3
7	12459	3.53588778214	2
7	12589	3.571347701481	3
7	12647	3.587923701481	2
7	12709	3.604755701481	3
7	12742	3.621331701481	2
7	13059	3.711508861911	3
7	13082	3.728084861911	2
7	13337	3.779860967839	3
7	13401	3.796436967839	2
7	13508	3.832341935248	3
7	13543	3.848917935248	2
7	13773	3.900758802834	3
7	13796	3.917334802834	2
7	13818	3.917782802834	3
7	13840	3.934358802834	2
7	14122	4.002903414568	3
7	14167	4.019479414568	2
7	14702	4.172505582344	3
7	14735	4.189081582344	2
7	15191	4.310169874683	3
7	15229	4.326745874683	2
7	15394	4.362202491204	3
7	15442	4.378778491204	2
7	15546	4.412954611728	3
7	15569	4.429530611728	2
7	15808	4.480859132128	3
7	15837	4.497435132128	2
7	16061	4.54895590383	3
7	16098	4.56553190383	2
7	16964	4.789212621506	3
7	17029	4.805788621506	2
7	17427	4.908508621506	3
7	17460	4.925084621506	2
7	17563	4.943004621506	3
7	17584	4.959580621506	2
7	17868	5.030876621506	3
7	17896	5.047452621506	2
7	18034	5.10210928728	3
7	18043	5.11868528728	2
7	18142	20.056000465836	3
7	18151	20.072576465836	2
7	18258	40.054400465836	3
7	18267	40.070976465836	2
7	18372	60.056000465836	3
7	18381	60.072576465836	2
7	18486	80.053120465836	3
7	18495	80.069696465836	2
7	18598	100.054720465836	3
7	18607	100.071296465836	2
7	18714	120.055040465836	3
7	18723	120.071616465836	2
7	18826	140.054080465836	3
7	18835	140.070656465836	2
7	18940	160.055680465836	3
7	18949	160.072256465836	2
7	19056	180.056000465836	3
7	19065	180.072576465836	2
7	19168	200.053440465836	3
7	19177	200.070016465836	2
7	19280	220.055040465836	3
7	19289	220.071616465836	2
7	19396	240.056000465836	3
7	19405	240.072576465836	2
7	19508	260.055680465836	3
7	19517	260.072256465836	2
7	19624	280.053120465836	3
7	19633	280.069696465836	2
7	19738	300.055040465836	3
7	19747	300.071616465836	2
7	19850	320.053760465836	3
7	19859	320.070336465836	2
7	19962	340.054720465836	3
7	19971	340.071296465836	2
7	20080	360.053440465836	3
7	20089	360.070016465836	2
7	20190	380.054720465836	3
7	20199	380.071296465836	2
7	20306	400.054080465836	3
7	20315	400.070656465836	2
7	20420	420.055680465836	3
7	20429	420.072256465836	2
7	20532	440.056000465836	3
7	20541	440.072576465836	2
7	20646	460.055040465836	3
7	20655	460.071616465836	2
7	20762	480.051200465836	3
7	20771	480.067776465836	2
7	20874	500.053120465836	3
7	20883	500.069696465836	2
7	20986	520.052160465836	3
7	20995	520.068736465836	2
7	21102	540.053120465836	3
7	21111	540.069696465836	2
7	21216	560.055360465836	3
7	21225	560.071936465836	2
7	21328	580.055360465836	3
7	21337	580.071936465836	2
7	21446	600.054080465836	3
7	21455	600.070656465836	2
7	21554	620.054720465836	3
7	21563	620.071296465836	2
7	21670	640.055680465836	3
7	21679	640.072256465836	2
7	21784	660.054080465836	3
7	21793	660.070656465836	2
7	21898	680.055680465836	3
7	21907	680.072256465836	2
7	22012	700.053440465836	3
7	22021	700.070016465836	2
7	22126	720.053120465836	3
7	22135	720.069696465836	2
7	22238	740.055360465836	3
7	22247	740.071936465836	2
7	22352	760.054400465836	3
7	22361	760.070976465836	2
7	22468	780.056640465836	3
7	22477	780.073216465836	2
7	22580	800.054400465836	3
7	22589	800.070976465836	2
7	22692	820.052480465836	3
7	22701	820.069056465836	2
7	22810	840.053760465836	3
7	22819	840.070336465836	2
7	22920	860.056320465836	3
7	22929	860.072896465836	2
7	23036	880.055360465836	3
7	23045	880.071936465836	2
7	23150	900.055040465836	3
7	23159	900.071616465836	2
7	23262	920.056000465836	3
7	23271	920.072576465836	2
7	23374	940.056000465836	3
7	23383	940.072576465836	2
7	23492	960.056000465836	3
7	23501	960.072576465836	2
7	23604	980.054400465836	3
7	23613	980.070976465836	2
7	23718	1000.054720465836	3
7	23727	1000.071296465836	2
7	23832	1020.055360465836	3
7	23841	1020.071936465836	2
7	23944	1040.056000465836	3
7	23953	1040.072576465836	2
7	24058	1060.056000465836	3
7	24067	1060.072576465836	2
7	24174	1080.056640465836	3
7	24183	1080.073216465836	2
7	24286	1100.055680465836	3
7	24295	1100.072256465836	2
7	24400	1120.054080465836	3
7	24409	1120.070656465836	2
7	24514	1140.056000465836	3
7	24523	1140.072576465836	2
7	24628	1160.054400465836	3
7	24637	1160.070976465836	2
7	24740	1180.054720465836	3
7	24749	1180.071296465836	2
7	24858	1200.052480465836	3
7	24867	1200.069056465836	2
7	24966	1220.056960465836	3
7	24975	1220.073536465836	2
7	25082	1240.053120465836	3
7	25091	1240.069696465836	2
7	25198	1260.053120465836	3
7	25207	1260.069696465836	2
7	25310	1280.054720465836	3
7	25319	1280.071296465836	2
7	25424	1300.053120465836	3
7	25433	1300.069696465836	2
7	25538	1320.055040465836	3
7	25547	1320.071616465836	2
7	25650	1340.056640465836	3
7	25659	1340.073216465836	2
7	25764	1360.053120465836	3
7	25773	1360.069696465836	2
7	25880	1380.055360465836	3
7	25889	1380.071936465836	2
7	25994	1400.056640465836	3
7	26003	1400.073216465836	2
7	26104	1420.054080465836	3
7	26113	1420.070656465836	2
7	26222	1440.053120465836	3
7	26231	1440.069696465836	2
7	26332	1460.054720465836	3
7	26341	1460.071296465836	2
7	26448	1480.051840465836	3
7	26457	1480.068416465836	2
7	26562	1500.055360465836	3
7	26571	1500.071936465836	2
7	26674	1520.054720465836	3
7	26683	1520.071296465836	2
7	26788	1540.056000465836	3
7	26797	1540.072576465836	2
7	26904	1560.053120465836	3
7	26913	1560.069696465836	2
7	27016	1580.052800465836	3
7	27025	1580.069376465836	2
7	27130	1600.055040465836	3
7	27139	1600.071616465836	2
7	27244	1620.052800465836	3
7	27253	1620.069376465836	2
7	27356	1640.052480465836	3
7	27365	1640.069056465836	2
7	27470	1660.055680465836	3
7	27479	1660.072256465836	2
7	27588	1680.054720465836	3
7	27597	1680.071296465836	2
7	27698	1700.054080465836	3
7	27707	1700.070656465836	2
7	27812	1720.052160465836	3
7	27821	1720.068736465836	2
7	27926	1740.052800465836	3
7	27935	1740.069376465836	2
7	28040	1760.051520465836	3
7	28049	1760.068096465836	2
7	28152	1780.054080465836	3
7	28161	1780.070656465836	2
7	28270	1800.055360465836	3
7	28279	1800.071936465836	2
7	28380	1820.052480465836	3
7	28389	1820.069056465836	2
7	28494	1840.054720465836	3
7	28503	1840.071296465836	2
7	28610	1860.056640465836	3
7	28619	1860.073216465836	2
7	28722	1880.055680465836	3
7	28731	1880.072256465836	2
7	28836	1900.054720465836	3
7	28845	1900.071296465836	2
7	28950	1920.056000465836	3
7	28959	1920.072576465836	2
7	29062	1940.056640465836	3
7	29071	1940.073216465836	2
7	29178	1960.054080465836	3
7	29187	1960.070656465836	2
7	29292	1980.056640465836	3
7	29301	1980.073216465836	2
7	29406	2000.053760465836	3
7	29415	2000.070336465836	2
7	29516	2020.054400465836	3
7	29525	2020.070976465836	2
7	29634	2040.054400465836	3
7	29643	2040.070976465836	2
7	29744	2060.056000465836	3
7	29753	2060.072576465836	2
7	29860	2080.055360465836	3
7	29869	2080.071936465836	2
7	29976	2100.054080465836	3
7	29985	2100.070656465836	2
7	30086	2120.054720465836	3
7	30095	2120.071296465836	2
7	30200	2140.056320465836	3
7	30209	2140.072896465836	2
7	30316	2160.055360465836	3
7	30325	2160.071936465836	2
7	30428	2180.053440465836	3
7	30437	2180.070016465836	2
7	30542	2200.052160465836	3
7	30551	2200.068736465836	2
7	30656	2220.054720465836	3
7	30665	2220.071296465836	2
7	30770	2240.053120465836	3
7	30779	2240.069696465836	2
7	30882	2260.055360465836	3
7	30891	2260.071936465836	2
7	31000	2280.057600465836	3
7	31009	2280.074176465836	2
7	31110	2300.055680465836	3
7	31119	2300.072256465836	2
7	31224	2320.057920465836	3
7	31233	2320.074496465836	2
7	31338	2340.056320465836	3
7	31347	2340.072896465836	2
7	31452	2360.054080465836	3
7	31461	2360.070656465836	2
7	31566	2380.054080465836	3
7	31575	2380.070656465836	2
7	31682	2400.055360465836	3
7	31691	2400.071936465836	2
7	31792	2420.053760465836	3
7	31801	2420.070336465836	2
7	31906	2440.050560465836	3
7	31915	2440.067136465836	2
7	32022	2460.055360465836	3
7	32031	2460.071936465836	2
7	32134	2480.054080465836	3
7	32143	2480.070656465836	2
7	32248	2500.054720465836	3
7	32257	2500.071296465836	2
7	32364	2520.054720465836	3
7	32373	2520.071296465836	2
7	32474	2540.055360465836	3
7	32483	2540.071936465836	2
7	32590	2560.054080465836	3
7	32599	2560.070656465836	2
7	32704	2580.054400465836	3
7	32713	2580.070976465836	2
7	32818	2600.056640465836	3
7	32827	2600.073216465836	2
7	32928	2620.054080465836	3
7	32937	2620.070656465836	2
7	33046	2640.053440465836	3
7	33055	2640.070016465836	2
7	33158	2660.056000465836	3
7	33167	2660.072576465836	2
7	33272	2680.054400465836	3
7	33281	2680.070976465836	2
7	33388	2700.054080465836	3
7	33397	2700.070656465836	2
7	33498	2720.055360465836	3
7	33507	2720.071936465836	2
7	33612	2740.054720465836	3
7	33621	2740.071296465836	2
7	33728	2760.055680465836	3
7	33737	2760.072256465836	2
7	33840	2780.056640465836	3
7	33849	2780.073216465836	2
7	33956	2800.053120465836	3
7	33965	2800.069696465836	2
7	34068	2820.053760465836	3
7	34077	2820.070336465836	2
7	34182	2840.052160465836	3
7	34191	2840.068736465836	2
7	34294	2860.056640465836	3
7	34303	2860.073216465836	2
7	34412	2880.056960465836	3
7	34421	2880.073536465836	2
7	34522	2900.053120465836	3
7	34531	2900.069696465836	2
7	34636	2920.053440465836	3
7	34645	2920.070016465836	2
7	34752	2940.052800465836	3
7	34761	2940.069376465836	2
7	34864	2960.056000465836	3
7	34873	2960.072576465836	2
7	34978	2980.054400465836	3
7	34987	2980.070976465836	2
7	35094	3000.056640465836	3
7	35103	3000.073216465836	2
7	35204	3020.056640465836	3
7	35213	3020.073216465836	2
7	35318	3040.054720465836	3
7	35327	3040.071296465836	2
7	35434	3060.054400465836	3
7	35443	3060.070976465836	2
7	35548	3080.058240465836	3
7	35557	3080.074816465836	2
7	35660	3100.056320465836	3
7	35669	3100.072896465836	2
7	35776	3120.053120465836	3
7	35785	3120.069696465836	2
7	35886	3140.054400465836	3
7	35895	3140.070976465836	2
7	36002	3160.055680465836	3
7	36011	3160.072256465836	2
7	36116	3180.056000465836	3
7	36125	3180.072576465836	2
7	36230	3200.052800465836	3
7	36239	3200.069376465836	2
7	36342	3220.054080465836	3
7	36351	3220.070656465836	2
7	36458	3240.054400465836	3
7	36467	3240.070976465836	2
7	36570	3260.053120465836	3
7	36579	3260.069696465836	2
7	36684	3280.054080465836	3
7	36693	3280.070656465836	2
7	36800	3300.052800465836	3
7	36809	3300.069376465836	2
7	36910	3320.054400465836	3
7	36919	3320.070976465836	2
7	37024	3340.054720465836	3
7	37033	3340.071296465836	2
7	37142	3360.056000465836	3
7	37151	3360.072576465836	2
7	37252	3380.053440465836	3
7	37261	3380.070016465836	2
7	37368	3400.055040465836	3
7	37377	3400.071616465836	2
7	37480	3420.053760465836	3
7	37489	3420.070336465836	2
7	37594	3440.052800465836	3
7	37603	3440.069376465836	2
7	37706	3460.053760465836	3
7	37715	3460.070336465836	2
7	37824	3480.054080465836	3
7	37833	3480.070656465836	2
7	37936	3500.056000465836	3
7	37945	3500.072576465836	2
7	38048	3520.055040465836	3
7	38057	3520.071616465836	2
7	38164	3540.055360465836	3
7	38173	3540.071936465836	2
7	38276	3560.052480465836	3
7	38285	3560.069056465836	2
7	38390	3580.056000465836	3
7	38399	3580.072576465836	2
7	38506	3600.055360465836	3
7	38515	3600.071936465836	2
7	38616	3620.053120465836	3
7	38625	3620.069696465836	2
7	38732	3640.055360465836	3
7	38741	3640.071936465836	2
7	38846	3660.051840465836	3
7	38855	3660.068416465836	2
7	38960	3680.056320465836	3
7	38969	3680.072896465836	2
7	39072	3700.056320465836	3
7	39081	3700.072896465836	2
7	39188	3720.056960465836	3
7	39197	3720.073536465836	2
7	39298	3740.054400465836	3
7	39307	3740.070976465836	2
7	39414	3760.056960465836	3
7	39423	3760.073536465836	2
7	39530	3780.054080465836	3
7	39539	3780.070656465836	2
7	39642	3800.056640465836	3
7	39651	3800.073216465836	2
7	39754	3820.053440465836	3
7	39763	3820.070016465836	2
7	39870	3840.055360465836	3
7	39879	3840.071936465836	2
7	39982	3860.053440465836	3
7	39991	3860.070016465836	2
7	40096	3880.055360465836	3
7	40105	3880.071936465836	2
7	40212	3900.058240465836	3
7	40221	3900.074816465836	2
7	40324	3920.055680465836	3
7	40333	3920.072256465836	2
7	40436	3940.057600465836	3
7	40445	3940.074176465836	2
7	40554	3960.053120465836	3
7	40563	3960.069696465836	2
7	40664	3980.053120465836	3
7	40673	3980.069696465836	2
7	40780	4000.056320465836	3
7	40789	4000.072896465836	2
7	40892	4020.056640465836	3
7	40901	4020.073216465836	2
7	41006	4040.056640465836	3
7	41015	4040.073216465836	2
7	41120	4060.054400465836	3
7	41129	4060.070976465836	2
7	41236	4080.056640465836	3
7	41245	4080.073216465836	2
7	41348	4100.056640465836	3
7	41357	4100.073216465836	2
7	41460	4120.055360465836	3
7	41469	4120.071936465836	2
7	41576	4140.053120465836	3
7	41585	4140.069696465836	2
7	41688	4160.054080465836	3
7	41697	4160.070656465836	2
7	41802	4180.055040465836	3
7	41811	4180.071616465836	2
7	41920	4200.051200465836	3
7	41929	4200.067776465836	2
7	42028	4220.055040465836	3
7	42037	4220.071616465836	2
7	42144	4240.053760465836	3
7	42153	4240.070336465836	2
7	42258	4260.054400465836	3
7	42267	4260.070976465836	2
7	42372	4280.053120465836	3
7	42381	4280.069696465836	2
7	42484	4300.055680465836	3
7	42493	4300.072256465836	2
7	42600	4320.053440465836	3
7	42609	4320.070016465836	2
7	42712	4340.052480465836	3
7	42721	4340.069056465836	2
7	42826	4360.054080465836	3
7	42835	4360.070656465836	2
7	42942	4380.053440465836	3
7	42951	4380.070016465836	2
7	43054	4400.052800465836	3
7	43063	4400.069376465836	2
7	43166	4420.056000465836	3
7	43175	4420.072576465836	2
7	43282	4440.053760465836	3
7	43291	4440.070336465836	2
7	43394	4460.051840465836	3
7	43403	4460.068416465836	2
7	43510	4480.055680465836	3
7	43519	4480.072256465836	2
7	43624	4500.054400465836	3
7	43633	4500.070976465836	2
7	43736	4520.053440465836	3
7	43745	4520.070016465836	2
7	43848	4540.051840465836	3
7	43857	4540.068416465836	2
7	43966	4560.053760465836	3
7	43975	4560.070336465836	2
7	44076	4580.053120465836	3
7	44085	4580.069696465836	2
7	44192	4600.052800465836	3
7	44201	4600.069376465836	2
7	44306	4620.055040465836	3
7	44315	4620.071616465836	2
7	44418	4640.054720465836	3
7	44427	4640.071296465836	2
7	44532	4660.054400465836	3
7	44541	4660.070976465836	2
7	44648	4680.052800465836	3
7	44657	4680.069376465836	2
7	44760	4700.052160465836	3
7	44769	4700.068736465836	2
7	44872	4720.054720465836	3
7	44881	4720.071296465836	2
7	44988	4740.056960465836	3
7	44997	4740.073536465836	2
7	45102	4760.053120465836	3
7	45111	4760.069696465836	2
7	45214	4780.055360465836	3
7	45223	4780.071936465836	2
7	45332	4800.052480465836	3
7	45341	4800.069056465836	2
7	45440	4820.055360465836	3
7	45449	4820.071936465836	2
7	45556	4840.055680465836	3
7	45565	4840.072256465836	2
7	45670	4860.051840465836	3
7	45679	4860.068416465836	2
7	45784	4880.052800465836	3
7	45793	4880.069376465836	2
7	45898	4900.052480465836	3
7	45907	4900.069056465836	2
7	46012	4920.055040465836	3
7	46021	4920.071616465836	2
7	46124	4940.055680465836	3
7	46133	4940.072256465836	2
7	46238	4960.055040465836	3
7	46247	4960.071616465836	2
7	46354	4980.055680465836	3
7	46363	4980.072256465836	2
7	46466	5000.054080465836	3
7	46475	5000.070656465836	2
7	46578	5020.052480465836	3
7	46587	5020.069056465836	2
7	46696	5040.054400465836	3
7	46705	5040.070976465836	2
7	46806	5060.055040465836	3
7	46815	5060.071616465836	2
7	46922	5080.054400465836	3
7	46931	5080.070976465836	2
7	47036	5100.055680465836	3
7	47045	5100.072256465836	2
7	47148	5120.056000465836	3
7	47157	5120.072576465836	2
7	47260	5140.054080465836	3
7	47269	5140.070656465836	2
7	47378	5160.053760465836	3
7	47387	5160.070336465836	2
7	47490	5180.053440465836	3
7	47499	5180.070016465836	2
7	47604	5200.055040465836	3
7	47613	5200.071616465836	2
7	47718	5220.054080465836	3
7	47727	5220.070656465836	2
7	47830	5240.055360465836	3
7	47839	5240.071936465836	2
7	47944	5260.055360465836	3
7	47953	5260.071936465836	2
7	48060	5280.054720465836	3
7	48069	5280.071296465836	2
7	48172	5300.056960465836	3
7	48181	5300.073536465836	2
7	48286	5320.051520465836	3
7	48295	5320.068096465836	2
7	48400	5340.052480465836	3
7	48409	5340.069056465836	2
7	48514	5360.056000465836	3
7	48523	5360.072576465836	2
7	48626	5380.055680465836	3
7	48635	5380.072256465836	2
7	48744	5400.054720465836	3
7	48753	5400.071296465836	2
7	48852	5420.054080465836	3
7	48861	5420.070656465836	2
7	48968	5440.052800465836	3
7	48977	5440.069376465836	2
7	49084	5460.053120465836	3
7	49093	5460.069696465836	2
7	49196	5480.056320465836	3
7	49205	5480.072896465836	2
7	49310	5500.054720465836	3
7	49319	5500.071296465836	2
7	49424	5520.053120465836	3
7	49433	5520.069696465836	2
7	49536	5540.056640465836	3
7	49545	5540.073216465836	2
7	49650	5560.054400465836	3
7	49659	5560.070976465836	2
7	49766	5580.056960465836	3
7	49775	5580.073536465836	2
7	49880	5600.056960465836	3
7	49889	5600.073536465836	2
7	49990	5620.052480465836	3
7	49999	5620.069056465836	2
7	50108	5640.054080465836	3
7	50117	5640.070656465836	2
7	50218	5660.053120465836	3
7	50227	5660.069696465836	2
7	50334	5680.052800465836	3
7	50343	5680.069376465836	2
7	50448	5700.052480465836	3
7	50457	5700.069056465836	2
7	50560	5720.056320465836	3
7	50569	5720.072896465836	2
7	50674	5740.055360465836	3
7	50683	5740.071936465836	2
7	50790	5760.054720465836	3
7	50799	5760.071296465836	2
7	50902	5780.055680465836	3
7	50911	5780.072256465836	2
7	51016	5800.053760465836	3
7	51025	5800.070336465836	2
7	51130	5820.053760465836	3
7	51139	5820.070336465836	2
7	51242	5840.053120465836	3
7	51251	5840.069696465836	2
7	51356	5860.054080465836	3
7	51365	5860.070656465836	2
7	51474	5880.056320465836	3
7	51483	5880.072896465836	2
7	51584	5900.056320465836	3
7	51593	5900.072896465836	2
7	51698	5920.053440465836	3
7	51707	5920.070016465836	2
7	51812	5940.053760465836	3
7	51821	5940.070336465836	2
7	51926	5960.053440465836	3
7	51935	5960.070016465836	2
7	52038	5980.052800465836	3
7	52047	5980.069376465836	2
7	52156	6000.055680465836	3
7	52165	6000.072256465836	2
7	52266	6020.056960465836	3
7	52275	6020.073536465836	2
7	52380	6040.053760465836	3
7	52389	6040.070336465836	2
7	52496	6060.054720465836	3
7	52505	6060.071296465836	2
7	52608	6080.053120465836	3
7	52617	6080.069696465836	2
7	52722	6100.054400465836	3
7	52731	6100.070976465836	2
7	52836	6120.053760465836	3
7	52845	6120.070336465836	2
7	52948	6140.056320465836	3
7	52957	6140.072896465836	2
7	53064	6160.055040465836	3
7	53073	6160.071616465836	2
7	53178	6180.055040465836	3
7	53187	6180.071616465836	2
7	53292	6200.054080465836	3
7	53301	6200.070656465836	2
7	53402	6220.055040465836	3
7	53411	6220.071616465836	2
7	53520	6240.051840465836	3
7	53529	6240.068416465836	2
7	53630	6260.055040465836	3
7	53639	6260.071616465836	2
7	53746	6280.056320465836	3
7	53755	6280.072896465836	2
7	53862	6300.051840465836	3
7	53871	6300.068416465836	2
7	53972	6320.056000465836	3
7	53981	6320.072576465836	2
7	54086	6340.057920465836	3
7	54095	6340.074496465836	2
7	54202	6360.055680465836	3
7	54211	6360.072256465836	2
7	54314	6380.052160465836	3
7	54323	6380.068736465836	2
7	54428	6400.054720465836	3
7	54437	6400.071296465836	2
7	54542	6420.054400465836	3
7	54551	6420.070976465836	2
7	54656	6440.053440465836	3
7	54665	6440.070016465836	2
7	54768	6460.054400465836	3
7	54777	6460.070976465836	2
7	54886	6480.056000465836	3
7	54895	6480.072576465836	2
7	54996	6500.052160465836	3
7	55005	6500.068736465836	2
7	55110	6520.056640465836	3
7	55119	6520.073216465836	2
7	55224	6540.056320465836	3
7	55233	6540.072896465836	2
7	55338	6560.052800465836	3
7	55347	6560.069376465836	2
7	55452	6580.055680465836	3
7	55461	6580.072256465836	2
7	55568	6600.054400465836	3
7	55577	6600.070976465836	2
7	55678	6620.055360465836	3
7	55687	6620.071936465836	2
7	55792	6640.056640465836	3
7	55801	6640.073216465836	2
7	55908	6660.052800465836	3
7	55917	6660.069376465836	2
7	56020	6680.056000465836	3
7	56029	6680.072576465836	2
7	56134	6700.054080465836	3
7	56143	6700.070656465836	2
7	56250	6720.053120465836	3
7	56259	6720.069696465836	2
7	56360	6740.053440465836	3
7	56369	6740.070016465836	2
7	56476	6760.053760465836	3
7	56485	6760.070336465836	2
7	56590	6780.055360465836	3
7	56599	6780.071936465836	2
7	56704	6800.054400465836	3
7	56713	6800.070976465836	2
7	56814	6820.057600465836	3
7	56823	6820.074176465836	2
7	56932	6840.054400465836	3
7	56941	6840.070976465836	2
7	57044	6860.055040465836	3
7	57053	6860.071616465836	2
7	57158	6880.056000465836	3
7	57167	6880.072576465836	2
7	57274	6900.056320465836	3
7	57283	6900.072896465836	2
7	57384	6920.053440465836	3
7	57393	6920.070016465836	2
7	57498	6940.054400465836	3
7	57507	6940.070976465836	2
7	57614	6960.055680465836	3
7	57623	6960.072256465836	2
7	57726	6980.052800465836	3
7	57735	6980.069376465836	2
7	57842	7000.055360465836	3
7	57851	7000.071936465836	2
7	57954	7020.055680465836	3
7	57963	7020.072256465836	2
7	58068	7040.052800465836	3
7	58077	7040.069376465836	2
7	58180	7060.052480465836	3
7	58189	7060.069056465836	2
7	58298	7080.054400465836	3
7	58307	7080.070976465836	2
7	58408	7100.052480465836	3
7	58417	7100.069056465836	2
7	58522	7120.056000465836	3
7	58531	7120.072576465836	2
7	58638	7140.051840465836	3
7	58647	7140.068416465836	2
7	58750	7160.055360465836	3
7	58759	7160.071936465836	2
7	58864	7180.055040465836	3
7	58873	7180.071616465836	2
7	58980	7200.052160465836	3
7	58989	7200.068736465836	2
7	59090	7220.054080465836	3
7	59099	7220.070656465836	2
7	59204	7240.055040465836	3
7	59213	7240.071616465836	2
7	59320	7260.052480465836	3
7	59329	7260.069056465836	2
7	59434	7280.058560465836	3
7	59443	7280.075136465836	2
7	59546	7300.054080465836	3
7	59555	7300.070656465836	2
7	59662	7320.054400465836	3
7	59671	7320.070976465836	2
7	59772	7340.055360465836	3
7	59781	7340.071936465836	2
7	59888	7360.057280465836	3
7	59897	7360.073856465836	2
7	60002	7380.052800465836	3
7	60011	7380.069376465836	2
7	60116	7400.057280465836	3
7	60125	7400.073856465836	2
7	60228	7420.055040465836	3
7	60237	7420.071616465836	2
7	60344	7440.054720465836	3
7	60353	7440.071296465836	2
7	60456	7460.055360465836	3
7	60465	7460.071936465836	2
7	60570	7480.056640465836	3
7	60579	7480.073216465836	2
7	60686	7500.055680465836	3
7	60695	7500.072256465836	2
7	60796	7520.052800465836	3
7	60805	7520.069376465836	2
7	60910	7540.055360465836	3
7	60919	7540.071936465836	2
7	61028	7560.056640465836	3
7	61037	7560.073216465836	2
7	61138	7580.055360465836	3
7	61147	7580.071936465836	2
7	61254	7600.055040465836	3
7	61263	7600.071616465836	2
7	61366	7620.052160465836	3
7	61375	7620.068736465836	2
7	61480	7640.054400465836	3
7	61489	7640.070976465836	2
7	61592	7660.056000465836	3
7	61601	7660.072576465836	2
7	61710	7680.054400465836	3
7	61719	7680.070976465836	2
7	61822	7700.056640465836	3
7	61831	7700.073216465836	2
7	61934	7720.055040465836	3
7	61943	7720.071616465836	2
7	62050	7740.054080465836	3
7	62059	7740.070656465836	2
7	62162	7760.056000465836	3
7	62171	7760.072576465836	2
7	62276	7780.056000465836	3
7	62285	7780.072576465836	2
7	62392	7800.055360465836	3
7	62401	7800.071936465836	2
7	62502	7820.053760465836	3
7	62511	7820.070336465836	2
7	62618	7840.051840465836	3
7	62627	7840.068416465836	2
7	62732	7860.057920465836	3
7	62741	7860.074496465836	2
7	62846	7880.053760465836	3
7	62855	7880.070336465836	2
7	62958	7900.053440465836	3
7	62967	7900.070016465836	2
7	63074	7920.054400465836	3
7	63083	7920.070976465836	2
7	63184	7940.057600465836	3
7	63193	7940.074176465836	2
7	63300	7960.054720465836	3
7	63309	7960.071296465836	2
7	63416	7980.054400465836	3
7	63425	7980.070976465836	2
7	63528	8000.054720465836	3
7	63537	8000.071296465836	2
7	63640	8020.053440465836	3
7	63649	8020.070016465836	2
7	63756	8040.055040465836	3
7	63765	8040.071616465836	2
7	63868	8060.054720465836	3
7	63877	8060.071296465836	2
7	63982	8080.057280465836	3
7	63991	8080.073856465836	2
7	64098	8100.054400465836	3
7	64107	8100.070976465836	2
7	64210	8120.055040465836	3
7	64219	8120.071616465836	2
7	64322	8140.055680465836	3
7	64331	8140.072256465836	2
7	64440	8160.055680465836	3
7	64449	8160.072256465836	2
7	64550	8180.053760465836	3
7	64559	8180.070336465836	2
7	64666	8200.056320465836	3
7	64675	8200.072896465836	2
7	64778	8220.053760465836	3
7	64787	8220.070336465836	2
7	64892	8240.053760465836	3
7	64901	8240.070336465836	2
7	65006	8260.055040465836	3
7	65015	8260.071616465836	2
7	65122	8280.054720465836	3
7	65131	8280.071296465836	2
7	65234	8300.055680465836	3
7	65243	8300.072256465836	2
7	65346	8320.054080465836	3
7	65355	8320.070656465836	2
7	65462	8340.054720465836	3
7	65471	8340.071296465836	2
7	65574	8360.056000465836	3
7	65583	8360.072576465836	2
7	65688	8380.056320465836	3
7	65697	8380.072896465836	2
7	65806	8400.055680465836	3
7	65815	8400.072256465836	2
7	65914	8420.054400465836	3
7	65923	8420.070976465836	2
7	66030	8440.055040465836	3
7	66039	8440.071616465836	2
7	66144	8460.052800465836	3
7	66153	8460.069376465836	2
7	66258	8480.052800465836	3
7	66267	8480.069376465836	2
7	66370	8500.054080465836	3
7	66379	8500.070656465836	2
7	66486	8520.053440465836	3
7	66495	8520.070016465836	2
7	66598	8540.055040465836	3
7	66607	8540.071616465836	2
7	66712	8560.053440465836	3
7	66721	8560.070016465836	2
7	66828	8580.055360465836	3
7	66837	8580.071936465836	2
7	66940	8600.054080465836	3
7	66949	8600.070656465836	2
7	67052	8620.051840465836	3
7	67061	8620.068416465836	2
7	67168	8640.053760465836	3
7	67177	8640.070336465836	2
7	67280	8660.053760465836	3
7	67289	8660.070336465836	2
7	67396	8680.056320465836	3
7	67405	8680.072896465836	2
7	67510	8700.055360465836	3
7	67519	8700.071936465836	2
7	67622	8720.056960465836	3
7	67631	8720.073536465836	2
7	67734	8740.053440465836	3
7	67743	8740.070016465836	2
7	67852	8760.053760465836	3
7	67861	8760.070336465836	2
7	67962	8780.054080465836	3
7	67971	8780.070656465836	2
7	68078	8800.051840465836	3
7	68087	8800.068416465836	2
7	68192	8820.055680465836	3
7	68201	8820.072256465836	2
7	68304	8840.055040465836	3
7	68313	8840.071616465836	2
7	68418	8860.055040465836	3
7	68427	8860.071616465836	2
7	68534	8880.054080465836	3
7	68543	8880.070656465836	2
7	68646	8900.056640465836	3
7	68655	8900.073216465836	2
7	68758	8920.052800465836	3
7	68767	8920.069376465836	2
7	68874	8940.052800465836	3
7	68883	8940.069376465836	2
7	68988	8960.056000465836	3
7	68997	8960.072576465836	2
7	69100	8980.054080465836	3
7	69109	8980.070656465836	2
7	69218	9000.056000465836	3
7	69227	9000.072576465836	2
7	69326	9020.053440465836	3
7	69335	9020.070016465836	2
7	69442	9040.053760465836	3
7	69451	9040.070336465836	2
7	69556	9060.052800465836	3
7	69565	9060.069376465836	2
7	69670	9080.053440465836	3
7	69679	9080.070016465836	2
7	69784	9100.054400465836	3
7	69793	9100.070976465836	2
7	69898	9120.054400465836	3
7	69907	9120.070976465836	2
7	70010	9140.053440465836	3
7	70019	9140.070016465836	2
7	70124	9160.052480465836	3
7	70133	9160.069056465836	2
7	70240	9180.056640465836	3
7	70249	9180.073216465836	2
7	70352	9200.053760465836	3
7	70361	9200.070336465836	2
7	70464	9220.056000465836	3
7	70473	9220.072576465836	2
7	70582	9240.054720465836	3
7	70591	9240.071296465836	2
7	70692	9260.053440465836	3
7	70701	9260.070016465836	2
7	70808	9280.056960465836	3
7	70817	9280.073536465836	2
7	70922	9300.053760465836	3
7	70931	9300.070336465836	2
7	71034	9320.056960465836	3
7	71043	9320.073536465836	2
7	71146	9340.055040465836	3
7	71155	9340.071616465836	2
7	71264	9360.056960465836	3
7	71273	9360.073536465836	2
7	71376	9380.053440465836	3
7	71385	9380.070016465836	2
7	71490	9400.056640465836	3
7	71499	9400.073216465836	2
7	71604	9420.055680465836	3
7	71613	9420.072256465836	2
7	71716	9440.052160465836	3
7	71725	9440.068736465836	2
7	71830	9460.055680465836	3
7	71839	9460.072256465836	2
7	71946	9480.056640465836	3
7	71955	9480.073216465836	2
7	72058	9500.055360465836	3
7	72067	9500.071936465836	2
7	72172	9520.056000465836	3
7	72181	9520.072576465836	2
7	72286	9540.054400465836	3
7	72295	9540.070976465836	2
7	72400	9560.056960465836	3
7	72409	9560.073536465836	2
7	72512	9580.053120465836	3
7	72521	9580.069696465836	2
7	72630	9600.053440465836	3
7	72639	9600.070016465836	2
7	72738	9620.054400465836	3
7	72747	9620.070976465836	2
7	72854	9640.058240465836	3
7	72863	9640.074816465836	2
7	72970	9660.054080465836	3
7	72979	9660.070656465836	2
7	73082	9680.053120465836	3
7	73091	9680.069696465836	2
7	73196	9700.051840465836	3
7	73205	9700.068416465836	2
7	73310	9720.056320465836	3
7	73319	9720.072896465836	2
7	73422	9740.056000465836	3
7	73431	9740.072576465836	2
7	73536	9760.054400465836	3
7	73545	9760.070976465836	2
7	73652	9780.053120465836	3
7	73661	9780.069696465836	2
7	73766	9800.053440465836	3
7	73775	9800.070016465836	2
7	73876	9820.055680465836	3
7	73885	9820.072256465836	2
7	73994	9840.055680465836	3
7	74003	9840.072256465836	2
7	74104	9860.054400465836	3
7	74113	9860.070976465836	2
7	74220	9880.054080465836	3
7	74229	9880.070656465836	2
7	74334	9900.054080465836	3
7	74343	9900.070656465836	2
7	74446	9920.054400465836	3
7	74455	9920.070976465836	2
7	74560	9940.052800465836	3
7	74569	9940.069376465836	2
7	74676	9960.054400465836	3
7	74685	9960.070976465836	2
7	74788	9980.056000465836	3
7	74797	9980.072576465836	2
7	74902	10000.051520465836	3
7	74911	10000.068096465836	2
7	75016	10020.052800465836	3
7	75025	10020.069376465836	2
7	75128	10040.055680465836	3
7	75137	10040.072256465836	2
7	75242	10060.054400465836	3
7	75251	10060.070976465836	2
7	75360	10080.055040465836	3
7	75369	10080.071616465836	2
7	75470	10100.054400465836	3
7	75479	10100.070976465836	2
7	75584	10120.052480465836	3
7	75593	10120.069056465836	2
7	75698	10140.053760465836	3
7	75707	10140.070336465836	2
7	75812	10160.055040465836	3
7	75821	10160.071616465836	2
7	75924	10180.054720465836	3
7	75933	10180.071296465836	2
7	76042	10200.053120465836	3
[...]
26	128181	19380.000960605899	3
26	128195	19380.017344605899	1
26	128204	19380.017664622847	3
26	128218	19380.034048622847	1
26	128230	19380.034688719084	3
26	128245	19380.051072719084	1
26	128252	19380.053632768337	3
26	128262	19380.070016768337	1
26	128295	19400.000640605899	3
26	128309	19400.017024605899	1
26	128318	19400.017344622847	3
26	128332	19400.033728622847	1
26	128344	19400.035968719084	3
26	128360	19400.052352719084	1
26	128366	19400.052672768337	3
26	128376	19400.069056768337	1
26	128405	19420.000320605899	3
26	128418	19420.016704605899	1
26	128428	19420.017664622847	3
26	128443	19420.034048622847	1
26	128454	19420.034368719084	3
26	128469	19420.050752719084	1
26	128476	19420.052992768337	3
26	128486	19420.069376768337	1
26	128523	19440.002560605899	3
26	128536	19440.018944605899	1
26	128546	19440.019584622847	3
26	128561	19440.035968622847	1
26	128572	19440.036288719084	3
26	128587	19440.052672719084	1
26	128594	19440.055232768337	3
26	128604	19440.071616768337	1
26	128635	19460.001920605899	3
26	128648	19460.018304605899	1
26	128658	19460.019904622847	3
26	128672	19460.036288622847	1
26	128684	19460.038208719084	3
26	128699	19460.054592719084	1
26	128706	19460.055552768337	3
26	128716	19460.071936768337	1
26	128749	19480.002560605899	3
26	128762	19480.018944605899	1
26	128772	19480.020864622847	3
26	128786	19480.037248622847	1
26	128798	19480.038208719084	3
26	128813	19480.054592719084	1
26	128820	19480.055552768337	3
26	128830	19480.071936768337	1
26	128865	19500.000960605899	3
26	128878	19500.017344605899	1
26	128888	19500.019584622847	3
26	128903	19500.035968622847	1
26	128914	19500.036288719084	3
26	128930	19500.052672719084	1
26	128936	19500.052992768337	3
26	128946	19500.069376768337	1
26	128975	19520.000640605899	3
26	128988	19520.017024605899	1
26	128998	19520.019264622847	3
26	129012	19520.035648622847	1
26	129024	19520.036928719084	3
26	129039	19520.053312719084	1
26	129046	19520.054272768337	3
26	129056	19520.070656768337	1
26	129089	19540.001920605899	3
26	129102	19540.018304605899	1
26	129112	19540.019264622847	3
26	129126	19540.035648622847	1
26	129138	19540.037248719084	3
26	129153	19540.053632719084	1
26	129160	19540.054272768337	3
26	129170	19540.070656768337	1
26	129205	19560.000320605899	3
26	129218	19560.016704605899	1
26	129228	19560.018624622847	3
26	129242	19560.035008622847	1
26	129254	19560.037568719084	3
26	129269	19560.053952719084	1
26	129276	19560.055552768337	3
26	129286	19560.071936768337	1
26	129317	19580.000320605899	3
26	129330	19580.016704605899	1
26	129340	19580.017984622847	3
26	129354	19580.034368622847	1
26	129366	19580.035008719084	3
26	129382	19580.051392719084	1
26	129388	19580.051712768337	3
26	129398	19580.068096768337	1
26	129433	19600.000640605899	3
26	129446	19600.017024605899	1
26	129456	19600.018944622847	3
26	129470	19600.035328622847	1
26	129482	19600.037888719084	3
26	129497	19600.054272719084	1
26	129504	19600.054912768337	3
26	129514	19600.071296768337	1
26	129545	19620.001600605899	3
26	129558	19620.017984605899	1
26	129568	19620.020224622847	3
26	129582	19620.036608622847	1
26	129594	19620.037568719084	3
26	129609	19620.053952719084	1
26	129616	19620.055552768337	3
26	129626	19620.071936768337	1
26	129659	19640.001600605899	3
26	129672	19640.017984605899	1
26	129682	19640.020224622847	3
26	129696	19640.036608622847	1
26	129708	19640.038528719084	3
26	129723	19640.054912719084	1
26	129730	19640.056512768337	3
26	129740	19640.072896768337	1
26	129771	19660.002560605899	3
26	129784	19660.018944605899	1
26	129794	19660.020544622847	3
26	129808	19660.036928622847	1
26	129820	19660.038208719084	3
26	129835	19660.054592719084	1
26	129842	19660.056832768337	3
26	129852	19660.073216768337	1
26	129889	19680.002240605899	3
26	129902	19680.018624605899	1
26	129912	19680.020864622847	3
26	129926	19680.037248622847	1
26	129938	19680.038208719084	3
26	129953	19680.054592719084	1
26	129960	19680.055552768337	3
26	129970	19680.071936768337	1
26	129999	19700.001280605899	3
26	130012	19700.017664605899	1
26	130022	19700.019264622847	3
26	130036	19700.035648622847	1
26	130048	19700.037248719084	3
26	130064	19700.053632719084	1
26	130070	19700.053952768337	3
26	130080	19700.070336768337	1
26	130113	19720.000960605899	3
26	130126	19720.017344605899	1
26	130136	19720.018304622847	3
26	130150	19720.034688622847	1
26	130162	19720.035968719084	3
26	130177	19720.052352719084	1
26	130184	19720.053312768337	3
26	130194	19720.069696768337	1
26	130229	19740.001920605899	3
26	130243	19740.018304605899	1
26	130252	19740.018624622847	3
26	130266	19740.035008622847	1
26	130278	19740.037248719084	3
26	130293	19740.053632719084	1
26	130300	19740.055872768337	3
26	130310	19740.072256768337	1
26	130341	19760.000960605899	3
26	130354	19760.017344605899	1
26	130364	19760.018304622847	3
26	130378	19760.034688622847	1
26	130390	19760.037248719084	3
26	130406	19760.053632719084	1
26	130412	19760.053952768337	3
26	130422	19760.070336768337	1
26	130455	19780.000320605899	3
26	130468	19780.016704605899	1
26	130478	19780.018624622847	3
26	130492	19780.035008622847	1
26	130504	19780.036288719084	3
26	130519	19780.052672719084	1
26	130526	19780.054912768337	3
26	130536	19780.071296768337	1
26	130571	19800.002240605899	3
26	130584	19800.018624605899	1
26	130594	19800.020544622847	3
26	130608	19800.036928622847	1
26	130620	19800.037568719084	3
26	130635	19800.053952719084	1
26	130642	19800.055872768337	3
26	130652	19800.072256768337	1
26	130681	19820.000320605899	3
26	130694	19820.016704605899	1
26	130704	19820.018944622847	3
26	130718	19820.035328622847	1
26	130730	19820.035968719084	3
26	130745	19820.052352719084	1
26	130752	19820.053632768337	3
26	130762	19820.070016768337	1
26	130795	19840.000960605899	3
26	130808	19840.017344605899	1
26	130818	19840.018304622847	3
26	130832	19840.034688622847	1
26	130844	19840.036608719084	3
26	130859	19840.052992719084	1
26	130866	19840.053952768337	3
26	130876	19840.070336768337	1
26	130911	19860.001280605899	3
26	130924	19860.017664605899	1
26	130934	19860.020224622847	3
26	130948	19860.036608622847	1
26	130960	19860.038208719084	3
26	130975	19860.054592719084	1
26	130982	19860.055552768337	3
26	130992	19860.071936768337	1
26	131025	19880.000640605899	3
26	131038	19880.017024605899	1
26	131048	19880.019584622847	3
26	131062	19880.035968622847	1
26	131074	19880.036928719084	3
26	131089	19880.053312719084	1
26	131096	19880.054592768337	3
26	131106	19880.070976768337	1
26	131137	19900.000640605899	3
26	131150	19900.017024605899	1
26	131160	19900.019264622847	3
26	131174	19900.035648622847	1
26	131186	19900.037568719084	3
26	131201	19900.053952719084	1
26	131208	19900.054592768337	3
26	131218	19900.070976768337	1
26	131253	19920.001600605899	3
26	131266	19920.017984605899	1
26	131276	19920.019904622847	3
26	131290	19920.036288622847	1
26	131302	19920.037568719084	3
26	131317	19920.053952719084	1
26	131324	19920.055232768337	3
26	131334	19920.071616768337	1
26	131363	19940.000320605899	3
26	131376	19940.016704605899	1
26	131386	19940.017664622847	3
26	131400	19940.034048622847	1
26	131412	19940.035968719084	3
26	131428	19940.052352719084	1
26	131434	19940.052672768337	3
26	131444	19940.069056768337	1
26	131479	19960.002240605899	3
26	131492	19960.018624605899	1
26	131502	19960.020864622847	3
26	131516	19960.037248622847	1
26	131528	19960.038208719084	3
26	131543	19960.054592719084	1
26	131550	19960.056832768337	3
26	131560	19960.073216768337	1
26	131593	19980.001280605899	3
26	131606	19980.017664605899	1
26	131616	19980.019904622847	3
26	131631	19980.036288622847	1
26	131642	19980.036608719084	3
26	131657	19980.052992719084	1
26	131664	19980.054592768337	3
26	131674	19980.070976768337	1
26	131707	20000.000640605899	3
26	131720	20000.017024605899	1
26	131730	20000.019264622847	3
26	131744	20000.035648622847	1
26	131756	20000.036288719084	3
26	131771	20000.052672719084	1
26	131778	20000.054272768337	3
26	131788	20000.070656768337	1
26	131819	20020.001280605899	3
26	131832	20020.017664605899	1
26	131842	20020.020224622847	3
26	131856	20020.036608622847	1
26	131868	20020.037888719084	3
26	131883	20020.054272719084	1
26	131890	20020.056512768337	3
26	131900	20020.072896768337	1
26	131935	20040.000960605899	3
26	131948	20040.017344605899	1
26	131958	20040.018624622847	3
26	131972	20040.035008622847	1
26	131984	20040.035968719084	3
26	132000	20040.052352719084	1
26	132006	20040.052672768337	3
26	132016	20040.069056768337	1
26	132047	20060.002560605899	3
26	132060	20060.018944605899	1
26	132070	20060.021184622847	3
26	132084	20060.037568622847	1
26	132096	20060.039488719084	3
26	132111	20060.055872719084	1
26	132118	20060.057792768337	3
26	132128	20060.074176768337	1
26	132161	20080.002560605899	3
26	132174	20080.018944605899	1
26	132184	20080.021184622847	3
26	132198	20080.037568622847	1
26	132210	20080.038848719084	3
26	132225	20080.055232719084	1
26	132232	20080.057472768337	3
26	132242	20080.073856768337	1
26	132277	20100.000640605899	3
26	132290	20100.017024605899	1
26	132300	20100.018944622847	3
26	132314	20100.035328622847	1
26	132326	20100.036608719084	3
26	132341	20100.052992719084	1
26	132348	20100.055232768337	3
26	132358	20100.071616768337	1
26	132387	20120.000320605899	3
26	132401	20120.016704605899	1
26	132410	20120.017024622847	3
26	132424	20120.033408622847	1
26	132436	20120.034368719084	3
26	132451	20120.050752719084	1
26	132458	20120.052992768337	3
26	132468	20120.069376768337	1
26	132501	20140.000640605899	3
26	132514	20140.017024605899	1
26	132524	20140.017984622847	3
26	132538	20140.034368622847	1
26	132550	20140.035968719084	3
26	132565	20140.052352719084	1
26	132572	20140.054912768337	3
26	132582	20140.071296768337	1
26	132619	20160.000960605899	3
26	132632	20160.017344605899	1
26	132642	20160.017984622847	3
26	132656	20160.034368622847	1
26	132668	20160.036928719084	3
26	132684	20160.053312719084	1
26	132690	20160.053632768337	3
26	132700	20160.070016768337	1
26	132729	20180.000320605899	3
26	132742	20180.016704605899	1
26	132752	20180.018624622847	3
26	132766	20180.035008622847	1
26	132778	20180.036288719084	3
26	132793	20180.052672719084	1
26	132800	20180.053952768337	3
26	132810	20180.070336768337	1
26	132845	20200.000320605899	3
26	132858	20200.016704605899	1
26	132868	20200.018304622847	3
26	132882	20200.034688622847	1
26	132894	20200.036928719084	3
26	132910	20200.053312719084	1
26	132916	20200.053632768337	3
26	132926	20200.070016768337	1
26	132957	20220.002560605899	3
26	132970	20220.018944605899	1
26	132980	20220.021184622847	3
26	132995	20220.037568622847	1
26	133006	20220.037888719084	3
26	133021	20220.054272719084	1
26	133028	20220.054912768337	3
26	133038	20220.071296768337	1
26	133071	20240.001600605899	3
26	133084	20240.017984605899	1
26	133094	20240.020224622847	3
26	133108	20240.036608622847	1
26	133120	20240.038848719084	3
26	133135	20240.055232719084	1
26	133142	20240.057152768337	3
26	133152	20240.073536768337	1
26	133183	20260.000640605899	3
26	133196	20260.017024605899	1
26	133206	20260.018624622847	3
26	133220	20260.035008622847	1
26	133232	20260.037568719084	3
26	133247	20260.053952719084	1
26	133254	20260.056192768337	3
26	133264	20260.072576768337	1
26	133301	20280.002240605899	3
26	133314	20280.018624605899	1
26	133324	20280.020224622847	3
26	133338	20280.036608622847	1
26	133350	20280.038208719084	3
26	133365	20280.054592719084	1
26	133372	20280.056192768337	3
26	133382	20280.072576768337	1
26	133413	20300.002560605899	3
26	133426	20300.018944605899	1
26	133436	20300.019904622847	3
26	133450	20300.036288622847	1
26	133462	20300.037248719084	3
26	133477	20300.053632719084	1
26	133484	20300.054272768337	3
26	133494	20300.070656768337	1
26	133525	20320.000320605899	3
26	133538	20320.016704605899	1
26	133548	20320.017664622847	3
26	133562	20320.034048622847	1
26	133574	20320.035648719084	3
26	133589	20320.052032719084	1
26	133596	20320.054272768337	3
26	133606	20320.070656768337	1
26	133641	20340.002240605899	3
26	133654	20340.018624605899	1
26	133664	20340.020864622847	3
26	133678	20340.037248622847	1
26	133690	20340.038528719084	3
26	133705	20340.054912719084	1
26	133712	20340.057472768337	3
26	133722	20340.073856768337	1
26	133753	20360.000320605899	3
26	133766	20360.016704605899	1
26	133776	20360.017984622847	3
26	133791	20360.034368622847	1
26	133802	20360.034688719084	3
26	133817	20360.051072719084	1
26	133824	20360.052992768337	3
26	133834	20360.069376768337	1
26	133867	20380.000960605899	3
26	133881	20380.017344605899	1
26	133890	20380.017664622847	3
26	133905	20380.034048622847	1
26	133916	20380.034368719084	3
26	133931	20380.050752719084	1
26	133938	20380.053312768337	3
26	133948	20380.069696768337	1
26	133983	20400.000960605899	3
26	133997	20400.017344605899	1
26	134006	20400.017664622847	3
26	134020	20400.034048622847	1
26	134032	20400.035648719084	3
26	134047	20400.052032719084	1
26	134054	20400.054272768337	3
26	134064	20400.070656768337	1
26	134093	20420.000640605899	3
26	134106	20420.017024605899	1
26	134116	20420.018944622847	3
26	134130	20420.035328622847	1
26	134142	20420.036608719084	3
26	134157	20420.052992719084	1
26	134164	20420.053632768337	3
26	134174	20420.070016768337	1
26	134209	20440.002240605899	3
26	134222	20440.018624605899	1
26	134232	20440.019264622847	3
26	134246	20440.035648622847	1
26	134258	20440.036608719084	3
26	134273	20440.052992719084	1
26	134280	20440.053952768337	3
26	134290	20440.070336768337	1
26	134323	20460.000640605899	3
26	134336	20460.017024605899	1
26	134346	20460.018304622847	3
26	134360	20460.034688622847	1
26	134372	20460.036928719084	3
26	134387	20460.053312719084	1
26	134394	20460.055872768337	3
26	134404	20460.072256768337	1
26	134437	20480.001920605899	3
26	134450	20480.018304605899	1
26	134460	20480.020864622847	3
26	134475	20480.037248622847	1
26	134486	20480.037568719084	3
26	134501	20480.053952719084	1
26	134508	20480.055232768337	3
26	134518	20480.071616768337	1
26	134549	20500.000640605899	3
26	134562	20500.017024605899	1
26	134572	20500.018304622847	3
26	134586	20500.034688622847	1
26	134598	20500.037248719084	3
26	134613	20500.053632719084	1
26	134620	20500.055872768337	3
26	134630	20500.072256768337	1
26	134665	20520.002560605899	3
26	134678	20520.018944605899	1
26	134688	20520.020864622847	3
26	134702	20520.037248622847	1
26	134714	20520.039488719084	3
26	134729	20520.055872719084	1
26	134736	20520.056832768337	3
26	134746	20520.073216768337	1
26	134775	20540.002240605899	3
26	134788	20540.018624605899	1
26	134798	20540.020544622847	3
26	134812	20540.036928622847	1
26	134824	20540.039168719084	3
26	134839	20540.055552719084	1
26	134846	20540.057152768337	3
26	134856	20540.073536768337	1
26	134891	20560.002240605899	3
26	134904	20560.018624605899	1
26	134914	20560.020224622847	3
26	134928	20560.036608622847	1
26	134940	20560.037568719084	3
26	134955	20560.053952719084	1
26	134962	20560.055232768337	3
26	134972	20560.071616768337	1
26	135007	20580.000320605899	3
26	135020	20580.016704605899	1
26	135030	20580.017664622847	3
26	135044	20580.034048622847	1
26	135056	20580.036608719084	3
26	135071	20580.052992719084	1
26	135078	20580.053632768337	3
26	135088	20580.070016768337	1
26	135119	20600.001280605899	3
26	135132	20600.017664605899	1
26	135142	20600.019584622847	3
26	135157	20600.035968622847	1
26	135168	20600.036288719084	3
26	135183	20600.052672719084	1
26	135190	20600.054272768337	3
26	135200	20600.070656768337	1
26	135231	20620.001600605899	3
26	135245	20620.017984605899	1
26	135254	20620.018304622847	3
26	135269	20620.034688622847	1
26	135280	20620.035008719084	3
26	135295	20620.051392719084	1
26	135302	20620.052672768337	3
26	135312	20620.069056768337	1
26	135347	20640.001280605899	3
26	135360	20640.017664605899	1
26	135370	20640.018304622847	3
26	135384	20640.034688622847	1
26	135396	20640.036288719084	3
26	135411	20640.052672719084	1
26	135418	20640.054272768337	3
27	228	0.052161063175	1
27	229	0.052353063175	2
27	262	0.068737063175	1
27	262	0.068737063175	0
27	650	0.169730473454	1
27	655	0.169922473454	2
27	715	0.186306473454	1
27	715	0.186306473454	0
27	1620	0.428547658286	1
27	1624	0.428739658286	2
27	1671	0.445123658286	1
27	1671	0.445123658286	0
27	1753	0.463299238543	1
27	1758	0.463491238543	2
27	1802	0.479875238543	1
27	1802	0.479875238543	0
27	2057	0.549507287796	1
27	2058	0.549699287796	2
27	2108	0.566083287796	1
27	2108	0.566083287796	0
27	2379	0.653123287796	1
27	2381	0.653315287796	2
27	2421	0.669699287796	1
27	2421	0.669699287796	0
27	2592	0.721348141415	1
27	2595	0.721540141415	2
27	2655	0.737924141415	1
27	2655	0.737924141415	0
27	3766	1.044549041281	1
27	3774	1.044741041281	2
27	3834	1.061125041281	1
27	3834	1.061125041281	0
27	4142	1.14893402315	1
27	4143	1.14912602315	2
27	4179	1.16551002315	1
27	4179	1.16551002315	0
27	4255	1.182342902576	1
27	4264	1.182534902576	2
27	4318	1.198918902576	1
27	4318	1.198918902576	0
27	4378	1.217926783824	1
27	4380	1.218118783824	2
27	4396	1.234502783824	1
27	4396	1.234502783824	0
27	4591	1.288583909226	1
27	4592	1.288775909226	2
27	4631	1.305159909226	1
27	4631	1.305159909226	0
27	4801	1.338695462429	1
27	4804	1.338887462429	2
27	4840	1.355271462429	1
27	4840	1.355271462429	0
27	5441	1.52833093681	1
27	5442	1.52852293681	2
27	5486	1.54490693681	1
27	5486	1.54490693681	0
27	6005	1.682956997623	1
27	6007	1.683148997623	2
27	6070	1.699532997623	1
27	6070	1.699532997623	0
27	6330	1.769164189166	1
27	6331	1.769356189166	2
27	6401	1.785740189166	1
27	6401	1.785740189166	0
27	6675	1.856524420412	1
27	6676	1.856716420412	2
27	6738	1.873100420412	1
27	6738	1.873100420412	0
27	6759	1.874188420412	1
27	6761	1.874380420412	2
27	6796	1.890764420412	1
27	6796	1.890764420412	0
27	6853	1.912205025414	1
27	6855	1.912397025414	2
27	6904	1.928781025414	1
27	6904	1.928781025414	0
27	7199	2.002253845622	1
27	7200	2.002445845622	2
27	7222	2.018829845622	1
27	7222	2.018829845622	0
27	8514	2.381583472158	1
27	8516	2.381775472158	2
27	8555	2.398159472158	1
27	8555	2.398159472158	0
27	8865	2.48596836937	1
27	8866	2.48616036937	2
27	8900	2.50254436937	1
27	8900	2.50254436937	0
27	9311	2.622927067145	1
27	9312	2.623119067145	2
27	9363	2.639503067145	1
27	9363	2.639503067145	0
27	9439	2.656592035388	1
27	9442	2.656784035388	2
27	9490	2.673168035388	1
27	9490	2.673168035388	0
27	10189	2.865744035388	1
27	10190	2.865936035388	2
27	10242	2.882320035388	1
27	10242	2.882320035388	0
27	10314	2.899599678879	1
27	10319	2.899791678879	2
27	10377	2.916175678879	1
27	10377	2.916175678879	0
27	10536	2.969616305208	1
27	10537	2.969808305208	2
27	10560	2.986192305208	1
27	10560	2.986192305208	0
27	11087	3.12289671097	1
27	11096	3.12308871097	2
27	11140	3.13947271097	1
27	11140	3.13947271097	0
27	12009	3.396624266634	1
27	12011	3.396816266634	2
27	12046	3.413200266634	1
27	12046	3.413200266634	0
27	12405	3.519312035388	1
27	12414	3.519504035388	2
27	12474	3.535888035388	1
27	12474	3.535888035388	0
27	12588	3.571220114697	1
27	12590	3.571412114697	2
27	12635	3.587796114697	1
27	12635	3.587796114697	0
27	12847	3.639252345943	1
27	12856	3.639444345943	2
27	12898	3.655828345943	1
27	12898	3.655828345943	0
27	12909	3.656916345943	1
27	12917	3.657108345943	2
27	12950	3.673492345943	1
27	12950	3.673492345943	0
27	13335	3.779732822315	1
27	13339	3.779924822315	2
27	13389	3.796308822315	1
27	13389	3.796308822315	0
27	14530	4.122393123576	1
27	14532	4.122585123576	2
27	14568	4.138969123576	1
27	14568	4.138969123576	0
27	14759	4.189529572182	1
27	14760	4.189721572182	2
27	14804	4.206105572182	1
27	14804	4.206105572182	0
27	14877	4.223577572182	1
27	14878	4.223769572182	2
27	14930	4.240153572182	1
27	14930	4.240153572182	0
27	15007	4.257626269534	1
27	15008	4.257818269534	2
27	15036	4.274202269534	1
27	15036	4.274202269534	0
27	15113	4.292250451608	1
27	15116	4.292442451608	2
27	15170	4.308826451608	1
27	15170	4.308826451608	0
27	16330	4.616796206331	1
27	16331	4.616988206331	2
27	16381	4.633372206331	1
27	16381	4.633372206331	0
27	17922	5.047900924007	1
27	17923	5.048092924007	2
27	17954	5.064476924007	1
27	17954	5.064476924007	0
