version 2
run General-0-20170616-17:13:45-12442
attr configname General
attr datetime 20170616-17:13:45
attr experiment General
attr inifile omnetpp.ini
attr iterationvars ""
attr iterationvars2 $repetition=0
attr measurement ""
attr network Test
attr processid 12442
attr repetition 0
attr replication #0
attr resultdir results
attr runnumber 0
attr seedset 0
param **.app.StartTime 0s
param **.iWirelessNic.mac.useMACAcks false
param **.mobility.constraintAreaMaxX 200m
param **.mobility.constraintAreaMaxY 200m
param **.mobility.constraintAreaMaxZ 0m
param **.mobility.constraintAreaMinX 0m
param **.mobility.constraintAreaMinY 0m
param **.mobility.constraintAreaMinZ 0m
param **.node[*].Network.Dest 6
param **.node[*].mobility.initialX uniform(20m,200m)
param **.node[*].mobility.initialY uniform(20m,200m)
param **.node[0].Network.Id 0
param **.node[0].app.Period 10s
param **.node[1].Network.Id 1
param **.node[1].app.Period 15s
param **.node[2].Network.Id 2
param **.node[2].app.Period 20s
param **.node[3].Network.Id 3
param **.node[3].app.Period 25s
param **.node[4].Network.Id 4
param **.node[4].app.Period 30s
param **.node[5].Network.Id 5
param **.node[5].app.Period 35s
param **.node[6].Network.Id 6
param **.node[6].app.Period 40s
param **.numNodes 7

scalar Test.node[5].Network 	#received 	137
scalar Test.node[1].Network 	#received 	201
scalar Test.node[0].Network 	#received 	192
scalar Test.node[5].Network 	#received 	137
scalar Test.node[1].Network 	#received 	201
scalar Test.node[0].Network 	#received 	192
scalar Test.node[1].Network 	#received 	201
scalar Test.node[6].Network 	#received 	135
scalar Test.node[4].Network 	#received 	142
scalar Test.node[0].Network 	#received 	192
scalar Test.node[0].Network 	#received 	192
scalar Test.node[6].Network 	#received 	135
scalar Test.node[0].Network 	#received 	192
scalar Test.node[1].Network 	#received 	201
scalar Test.node[2].Network 	#received 	140
scalar Test.node[0].Network 	#received 	192
scalar Test.node[5].Network 	#received 	137
scalar Test.node[1].Network 	#received 	201
scalar Test.node[0].Network 	#received 	192
scalar Test.node[6].Network 	#received 	135
scalar Test.node[3].Network 	#received 	107
scalar Test.node[4].Network 	#received 	142
scalar Test.node[1].Network 	#received 	201
scalar Test.node[0].Network 	#received 	192
scalar Test.node[5].Network 	#received 	137
scalar Test.node[6].Network 	#received 	135
scalar Test.node[2].Network 	#received 	140
scalar Test.node[0].Network 	#received 	192
scalar Test.node[5].Network 	#received 	137
scalar Test.node[1].Network 	#received 	201
scalar Test.node[0].Network 	#received 	192
scalar Test.node[6].Network 	#received 	135
scalar Test.node[1].Network 	#received 	201
scalar Test.node[3].Network 	#received 	107
scalar Test.node[0].Network 	#received 	192
scalar Test.node[4].Network 	#received 	142
scalar Test.node[2].Network 	#received 	140
scalar Test.node[1].Network 	#received 	201
scalar Test.node[0].Network 	#received 	192
scalar Test.node[5].Network 	#received 	137
scalar Test.node[1].Network 	#received 	201
scalar Test.node[0].Network 	#received 	192
scalar Test.node[6].Network 	#received 	135
scalar Test.node[5].Network 	#received 	137
scalar Test.node[0].Network 	#received 	192
scalar Test.node[3].Network 	#received 	107
scalar Test.node[1].Network 	#received 	201
scalar Test.node[6].Network 	#received 	135
scalar Test.node[2].Network 	#received 	140
scalar Test.node[0].Network 	#received 	192
scalar Test.node[5].Network 	#received 	137
scalar Test.node[1].Network 	#received 	201
scalar Test.node[0].Network 	#received 	192
scalar Test.node[6].Network 	#received 	135
scalar Test.node[4].Network 	#received 	142
scalar Test.node[1].Network 	#received 	201
scalar Test.node[0].Network 	#received 	192
scalar Test.node[3].Network 	#received 	107
scalar Test.node[2].Network 	#received 	140
scalar Test.node[0].Network 	#received 	192
scalar Test.node[5].Network 	#received 	137
scalar Test.node[1].Network 	#received 	201
scalar Test.node[0].Network 	#received 	192
scalar Test.node[6].Network 	#received 	135
scalar Test.node[5].Network 	#received 	137
scalar Test.node[1].Network 	#received 	201
scalar Test.node[0].Network 	#received 	192
scalar Test.node[6].Network 	#received 	135
scalar Test.node[4].Network 	#received 	142
scalar Test.node[2].Network 	#received 	140
scalar Test.node[1].Network 	#received 	201
scalar Test.node[0].Network 	#received 	192
scalar Test.node[5].Network 	#received 	137
scalar Test.node[1].Network 	#received 	201
scalar Test.node[0].Network 	#received 	192
scalar Test.node[6].Network 	#received 	135
scalar Test.node[3].Network 	#received 	107
scalar Test.node[0].Network 	#received 	192
scalar Test.node[1].Network 	#received 	201
scalar Test.node[5].Network 	#received 	137
scalar Test.node[2].Network 	#received 	140
scalar Test.node[0].Network 	#received 	192
scalar Test.node[5].Network 	#received 	137
scalar Test.node[1].Network 	#received 	201
scalar Test.node[0].Network 	#received 	192
scalar Test.node[6].Network 	#received 	135
scalar Test.node[4].Network 	#received 	142
scalar Test.node[3].Network 	#received 	107
scalar Test.node[1].Network 	#received 	201
scalar Test.node[0].Network 	#received 	192
scalar Test.node[6].Network 	#received 	135
scalar Test.node[2].Network 	#received 	140
scalar Test.node[0].Network 	#received 	192
scalar Test.node[5].Network 	#received 	137
scalar Test.node[1].Network 	#received 	201
scalar Test.node[0].Network 	#received 	192
scalar Test.node[6].Network 	#received 	135
scalar Test.node[1].Network 	#received 	201
scalar Test.node[0].Network 	#received 	192
scalar Test.node[5].Network 	#received 	137
scalar Test.node[3].Network 	#received 	107
scalar Test.node[4].Network 	#received 	142
scalar Test.node[2].Network 	#received 	140
scalar Test.node[1].Network 	#received 	201
scalar Test.node[0].Network 	#received 	192
scalar Test.node[5].Network 	#received 	137
scalar Test.node[1].Network 	#received 	201
scalar Test.node[0].Network 	#received 	192
scalar Test.node[6].Network 	#received 	135
scalar Test.node[0].Network 	#received 	192
scalar Test.node[1].Network 	#received 	201
scalar Test.node[6].Network 	#received 	135
scalar Test.node[3].Network 	#received 	107
scalar Test.node[2].Network 	#received 	140
scalar Test.node[0].Network 	#received 	192
scalar Test.node[5].Network 	#received 	137
scalar Test.node[1].Network 	#received 	201
scalar Test.node[0].Network 	#received 	192
scalar Test.node[6].Network 	#received 	135
scalar Test.node[5].Network 	#received 	137
scalar Test.node[4].Network 	#received 	142
scalar Test.node[1].Network 	#received 	201
scalar Test.node[0].Network 	#received 	192
scalar Test.node[2].Network 	#received 	140
scalar Test.node[0].Network 	#received 	192
scalar Test.node[5].Network 	#received 	137
scalar Test.node[1].Network 	#received 	201
scalar Test.node[0].Network 	#received 	192
scalar Test.node[6].Network 	#received 	135
scalar Test.node[3].Network 	#received 	107
scalar Test.node[1].Network 	#received 	201
scalar Test.node[0].Network 	#received 	192
scalar Test.node[6].Network 	#received 	135
scalar Test.node[4].Network 	#received 	142
scalar Test.node[2].Network 	#received 	140
scalar Test.node[1].Network 	#received 	201
scalar Test.node[0].Network 	#received 	192
scalar Test.node[5].Network 	#received 	137
scalar Test.node[1].Network 	#received 	201
scalar Test.node[0].Network 	#received 	192
scalar Test.node[6].Network 	#received 	135
scalar Test.node[5].Network 	#received 	137
scalar Test.node[3].Network 	#received 	107
scalar Test.node[0].Network 	#received 	192
scalar Test.node[1].Network 	#received 	201
scalar Test.node[2].Network 	#received 	140
scalar Test.node[0].Network 	#received 	192
scalar Test.node[5].Network 	#received 	137
scalar Test.node[1].Network 	#received 	201
scalar Test.node[0].Network 	#received 	192
scalar Test.node[6].Network 	#received 	135
scalar Test.node[4].Network 	#received 	142
scalar Test.node[1].Network 	#received 	201
scalar Test.node[0].Network 	#received 	192
scalar Test.node[3].Network 	#received 	107
scalar Test.node[6].Network 	#received 	135
scalar Test.node[5].Network 	#received 	137
scalar Test.node[2].Network 	#received 	140
scalar Test.node[0].Network 	#received 	192
scalar Test.node[5].Network 	#received 	137
scalar Test.node[1].Network 	#received 	201
scalar Test.node[0].Network 	#received 	192
scalar Test.node[6].Network 	#received 	135
scalar Test.node[1].Network 	#received 	201
scalar Test.node[0].Network 	#received 	192
scalar Test.node[4].Network 	#received 	142
scalar Test.node[3].Network 	#received 	107
scalar Test.node[2].Network 	#received 	140
scalar Test.node[1].Network 	#received 	201
scalar Test.node[0].Network 	#received 	192
scalar Test.node[5].Network 	#received 	137
scalar Test.node[1].Network 	#received 	201
scalar Test.node[0].Network 	#received 	192
scalar Test.node[6].Network 	#received 	135
scalar Test.node[0].Network 	#received 	192
scalar Test.node[5].Network 	#received 	137
scalar Test.node[1].Network 	#received 	201
scalar Test.node[6].Network 	#received 	135
scalar Test.node[2].Network 	#received 	140
scalar Test.node[0].Network 	#received 	192
scalar Test.node[5].Network 	#received 	137
scalar Test.node[1].Network 	#received 	201
scalar Test.node[0].Network 	#received 	192
scalar Test.node[6].Network 	#received 	135
scalar Test.node[3].Network 	#received 	107
scalar Test.node[4].Network 	#received 	142
scalar Test.node[1].Network 	#received 	201
scalar Test.node[0].Network 	#received 	192
scalar Test.node[2].Network 	#received 	140
scalar Test.node[0].Network 	#received 	192
scalar Test.node[5].Network 	#received 	137
scalar Test.node[1].Network 	#received 	201
scalar Test.node[0].Network 	#received 	192
scalar Test.node[6].Network 	#received 	135
scalar Test.node[1].Network 	#received 	201
scalar Test.node[5].Network 	#received 	137
scalar Test.node[3].Network 	#received 	107
scalar Test.node[0].Network 	#received 	192
scalar Test.node[6].Network 	#received 	135
scalar Test.node[4].Network 	#received 	142
scalar Test.node[2].Network 	#received 	140
scalar Test.node[1].Network 	#received 	201
scalar Test.node[0].Network 	#received 	192
scalar Test.node[5].Network 	#received 	137
scalar Test.node[1].Network 	#received 	201
scalar Test.node[0].Network 	#received 	192
scalar Test.node[6].Network 	#received 	135
scalar Test.node[0].Network 	#received 	192
scalar Test.node[3].Network 	#received 	107
scalar Test.node[1].Network 	#received 	201
scalar Test.node[2].Network 	#received 	140
scalar Test.node[0].Network 	#received 	192
scalar Test.node[5].Network 	#received 	137
scalar Test.node[1].Network 	#received 	201
scalar Test.node[0].Network 	#received 	192
scalar Test.node[6].Network 	#received 	135
scalar Test.node[5].Network 	#received 	137
scalar Test.node[4].Network 	#received 	142
scalar Test.node[1].Network 	#received 	201
scalar Test.node[0].Network 	#received 	192
scalar Test.node[6].Network 	#received 	135
scalar Test.node[3].Network 	#received 	107
scalar Test.node[2].Network 	#received 	140
scalar Test.node[0].Network 	#received 	192
scalar Test.node[5].Network 	#received 	137
scalar Test.node[1].Network 	#received 	201
scalar Test.node[0].Network 	#received 	192
scalar Test.node[6].Network 	#received 	135
scalar Test.node[1].Network 	#received 	201
scalar Test.node[0].Network 	#received 	192
scalar Test.node[5].Network 	#received 	137
scalar Test.node[4].Network 	#received 	142
scalar Test.node[2].Network 	#received 	140
scalar Test.node[1].Network 	#received 	201
scalar Test.node[0].Network 	#received 	192
scalar Test.node[5].Network 	#received 	137
scalar Test.node[1].Network 	#received 	201
scalar Test.node[0].Network 	#received 	192
scalar Test.node[6].Network 	#received 	135
scalar Test.node[3].Network 	#received 	107
scalar Test.node[0].Network 	#received 	192
scalar Test.node[1].Network 	#received 	201
scalar Test.node[6].Network 	#received 	135
scalar Test.node[2].Network 	#received 	140
scalar Test.node[0].Network 	#received 	192
scalar Test.node[5].Network 	#received 	137
scalar Test.node[1].Network 	#received 	201
scalar Test.node[0].Network 	#received 	192
scalar Test.node[6].Network 	#received 	135
scalar Test.node[4].Network 	#received 	142
scalar Test.node[3].Network 	#received 	107
scalar Test.node[1].Network 	#received 	201
scalar Test.node[0].Network 	#received 	192
scalar Test.node[5].Network 	#received 	137
scalar Test.node[2].Network 	#received 	140
scalar Test.node[0].Network 	#received 	192
scalar Test.node[5].Network 	#received 	137
scalar Test.node[1].Network 	#received 	201
scalar Test.node[0].Network 	#received 	192
scalar Test.node[6].Network 	#received 	135
scalar Test.node[1].Network 	#received 	201
scalar Test.node[0].Network 	#received 	192
scalar Test.node[3].Network 	#received 	107
scalar Test.node[6].Network 	#received 	135
scalar Test.node[4].Network 	#received 	142
scalar Test.node[2].Network 	#received 	140
scalar Test.node[1].Network 	#received 	201
scalar Test.node[0].Network 	#received 	192
scalar Test.node[5].Network 	#received 	137
scalar Test.node[1].Network 	#received 	201
scalar Test.node[0].Network 	#received 	192
scalar Test.node[6].Network 	#received 	135
scalar Test.node[5].Network 	#received 	137
scalar Test.node[0].Network 	#received 	192
scalar Test.node[1].Network 	#received 	201
scalar Test.node[3].Network 	#received 	107
scalar Test.node[2].Network 	#received 	140
scalar Test.node[0].Network 	#received 	192
scalar Test.node[5].Network 	#received 	137
scalar Test.node[1].Network 	#received 	201
scalar Test.node[0].Network 	#received 	192
scalar Test.node[6].Network 	#received 	135
scalar Test.node[4].Network 	#received 	142
scalar Test.node[1].Network 	#received 	201
scalar Test.node[0].Network 	#received 	192
scalar Test.node[6].Network 	#received 	135
scalar Test.node[2].Network 	#received 	140
scalar Test.node[0].Network 	#received 	192
scalar Test.node[5].Network 	#received 	137
scalar Test.node[1].Network 	#received 	201
scalar Test.node[0].Network 	#received 	192
scalar Test.node[6].Network 	#received 	135
scalar Test.node[5].Network 	#received 	137
scalar Test.node[3].Network 	#received 	107
scalar Test.node[1].Network 	#received 	201
scalar Test.node[0].Network 	#received 	192
scalar Test.node[4].Network 	#received 	142
scalar Test.node[2].Network 	#received 	140
scalar Test.node[1].Network 	#received 	201
scalar Test.node[0].Network 	#received 	192
scalar Test.node[5].Network 	#received 	137
scalar Test.node[1].Network 	#received 	201
scalar Test.node[0].Network 	#received 	192
scalar Test.node[6].Network 	#received 	135
scalar Test.node[3].Network 	#received 	107
scalar Test.node[0].Network 	#received 	192
scalar Test.node[1].Network 	#received 	201
scalar Test.node[6].Network 	#received 	135
scalar Test.node[5].Network 	#received 	137
scalar Test.node[2].Network 	#received 	140
scalar Test.node[0].Network 	#received 	192
scalar Test.node[5].Network 	#received 	137
scalar Test.node[1].Network 	#received 	201
scalar Test.node[0].Network 	#received 	192
scalar Test.node[6].Network 	#received 	135
scalar Test.node[4].Network 	#received 	142
scalar Test.node[1].Network 	#received 	201
scalar Test.node[0].Network 	#received 	192
scalar Test.node[3].Network 	#received 	107
scalar Test.node[2].Network 	#received 	140
scalar Test.node[0].Network 	#received 	192
scalar Test.node[5].Network 	#received 	137
scalar Test.node[1].Network 	#received 	201
scalar Test.node[0].Network 	#received 	192
scalar Test.node[6].Network 	#received 	135
scalar Test.node[1].Network 	#received 	201
scalar Test.node[0].Network 	#received 	192
scalar Test.node[5].Network 	#received 	137
scalar Test.node[6].Network 	#received 	135
scalar Test.node[4].Network 	#received 	142
scalar Test.node[3].Network 	#received 	107
scalar Test.node[2].Network 	#received 	140
scalar Test.node[1].Network 	#received 	201
scalar Test.node[0].Network 	#received 	192
scalar Test.node[5].Network 	#received 	137
scalar Test.node[1].Network 	#received 	201
scalar Test.node[0].Network 	#received 	192
scalar Test.node[6].Network 	#received 	135
scalar Test.node[0].Network 	#received 	192
scalar Test.node[1].Network 	#received 	201
scalar Test.node[2].Network 	#received 	140
scalar Test.node[0].Network 	#received 	192
scalar Test.node[5].Network 	#received 	137
scalar Test.node[1].Network 	#received 	201
scalar Test.node[0].Network 	#received 	192
scalar Test.node[6].Network 	#received 	135
scalar Test.node[3].Network 	#received 	107
scalar Test.node[5].Network 	#received 	137
scalar Test.node[4].Network 	#received 	142
scalar Test.node[1].Network 	#received 	201
scalar Test.node[0].Network 	#received 	192
scalar Test.node[6].Network 	#received 	135
scalar Test.node[2].Network 	#received 	140
scalar Test.node[0].Network 	#received 	192
scalar Test.node[5].Network 	#received 	137
scalar Test.node[1].Network 	#received 	201
scalar Test.node[0].Network 	#received 	192
scalar Test.node[6].Network 	#received 	135
scalar Test.node[1].Network 	#received 	201
scalar Test.node[3].Network 	#received 	107
scalar Test.node[0].Network 	#received 	192
scalar Test.node[4].Network 	#received 	142
scalar Test.node[2].Network 	#received 	140
scalar Test.node[1].Network 	#received 	201
scalar Test.node[0].Network 	#received 	192
scalar Test.node[5].Network 	#received 	137
scalar Test.node[1].Network 	#received 	201
scalar Test.node[0].Network 	#received 	192
scalar Test.node[6].Network 	#received 	135
scalar Test.node[5].Network 	#received 	137
scalar Test.node[0].Network 	#received 	192
scalar Test.node[3].Network 	#received 	107
scalar Test.node[1].Network 	#received 	201
scalar Test.node[6].Network 	#received 	135
scalar Test.node[2].Network 	#received 	140
scalar Test.node[0].Network 	#received 	192
scalar Test.node[5].Network 	#received 	137
scalar Test.node[1].Network 	#received 	201
scalar Test.node[0].Network 	#received 	192
scalar Test.node[6].Network 	#received 	135
scalar Test.node[4].Network 	#received 	142
scalar Test.node[1].Network 	#received 	201
scalar Test.node[0].Network 	#received 	192
scalar Test.node[5].Network 	#received 	137
scalar Test.node[3].Network 	#received 	107
scalar Test.node[2].Network 	#received 	140
scalar Test.node[0].Network 	#received 	192
scalar Test.node[5].Network 	#received 	137
scalar Test.node[1].Network 	#received 	201
scalar Test.node[0].Network 	#received 	192
scalar Test.node[6].Network 	#received 	135
scalar Test.node[1].Network 	#received 	201
scalar Test.node[0].Network 	#received 	192
scalar Test.node[6].Network 	#received 	135
scalar Test.node[4].Network 	#received 	142
scalar Test.node[2].Network 	#received 	140
scalar Test.node[1].Network 	#received 	201
scalar Test.node[0].Network 	#received 	192
scalar Test.node[5].Network 	#received 	137
scalar Test.node[1].Network 	#received 	201
scalar Test.node[0].Network 	#received 	192
scalar Test.node[6].Network 	#received 	135
scalar Test.node[3].Network 	#received 	107
scalar Test.node[0].Network 	#received 	192
scalar Test.node[5].Network 	#received 	137
scalar Test.node[1].Network 	#received 	201
scalar Test.node[2].Network 	#received 	140
scalar Test.node[0].Network 	#received 	192
scalar Test.node[5].Network 	#received 	137
scalar Test.node[1].Network 	#received 	201
scalar Test.node[0].Network 	#received 	192
scalar Test.node[6].Network 	#received 	135
scalar Test.node[4].Network 	#received 	142
scalar Test.node[3].Network 	#received 	107
scalar Test.node[1].Network 	#received 	201
scalar Test.node[0].Network 	#received 	192
scalar Test.node[6].Network 	#received 	135
scalar Test.node[2].Network 	#received 	140
scalar Test.node[0].Network 	#received 	192
scalar Test.node[5].Network 	#received 	137
scalar Test.node[1].Network 	#received 	201
scalar Test.node[0].Network 	#received 	192
scalar Test.node[6].Network 	#received 	135
scalar Test.node[1].Network 	#received 	201
scalar Test.node[5].Network 	#received 	137
scalar Test.node[0].Network 	#received 	192
scalar Test.node[3].Network 	#received 	107
scalar Test.node[4].Network 	#received 	142
scalar Test.node[2].Network 	#received 	140
scalar Test.node[1].Network 	#received 	201
scalar Test.node[0].Network 	#received 	192
scalar Test.node[5].Network 	#received 	137
scalar Test.node[1].Network 	#received 	201
scalar Test.node[0].Network 	#received 	192
scalar Test.node[6].Network 	#received 	135
scalar Test.node[0].Network 	#received 	192
scalar Test.node[1].Network 	#received 	201
scalar Test.node[6].Network 	#received 	135
scalar Test.node[3].Network 	#received 	107
scalar Test.node[2].Network 	#received 	140
scalar Test.node[0].Network 	#received 	192
scalar Test.node[5].Network 	#received 	137
scalar Test.node[1].Network 	#received 	201
scalar Test.node[0].Network 	#received 	192
scalar Test.node[6].Network 	#received 	135
scalar Test.node[5].Network 	#received 	137
scalar Test.node[4].Network 	#received 	142
scalar Test.node[1].Network 	#received 	201
scalar Test.node[0].Network 	#received 	192
scalar Test.node[2].Network 	#received 	140
scalar Test.node[0].Network 	#received 	192
scalar Test.node[5].Network 	#received 	137
scalar Test.node[1].Network 	#received 	201
scalar Test.node[0].Network 	#received 	192
scalar Test.node[6].Network 	#received 	135
scalar Test.node[3].Network 	#received 	107
scalar Test.node[1].Network 	#received 	201
scalar Test.node[0].Network 	#received 	192
scalar Test.node[6].Network 	#received 	135
scalar Test.node[5].Network 	#received 	137
scalar Test.node[4].Network 	#received 	142
scalar Test.node[2].Network 	#received 	140
scalar Test.node[1].Network 	#received 	201
scalar Test.node[0].Network 	#received 	192
scalar Test.node[5].Network 	#received 	137
scalar Test.node[1].Network 	#received 	201
scalar Test.node[0].Network 	#received 	192
scalar Test.node[6].Network 	#received 	135
scalar Test.node[3].Network 	#received 	107
scalar Test.node[0].Network 	#received 	192
scalar Test.node[1].Network 	#received 	201
scalar Test.node[2].Network 	#received 	140
scalar Test.node[0].Network 	#received 	192
scalar Test.node[5].Network 	#received 	137
scalar Test.node[1].Network 	#received 	201
scalar Test.node[0].Network 	#received 	192
scalar Test.node[6].Network 	#received 	135
scalar Test.node[4].Network 	#received 	142
scalar Test.node[1].Network 	#received 	201
scalar Test.node[0].Network 	#received 	192
scalar Test.node[5].Network 	#received 	137
scalar Test.node[3].Network 	#received 	107
scalar Test.node[6].Network 	#received 	135
scalar Test.node[2].Network 	#received 	140
scalar Test.node[0].Network 	#received 	192
scalar Test.node[5].Network 	#received 	137
scalar Test.node[1].Network 	#received 	201
scalar Test.node[0].Network 	#received 	192
scalar Test.node[6].Network 	#received 	135
scalar Test.node[1].Network 	#received 	201
scalar Test.node[0].Network 	#received 	192
scalar Test.node[4].Network 	#received 	142
scalar Test.node[3].Network 	#received 	107
scalar Test.node[2].Network 	#received 	140
scalar Test.node[1].Network 	#received 	201
scalar Test.node[0].Network 	#received 	192
scalar Test.node[5].Network 	#received 	137
scalar Test.node[1].Network 	#received 	201
scalar Test.node[0].Network 	#received 	192
scalar Test.node[6].Network 	#received 	135
scalar Test.node[5].Network 	#received 	137
scalar Test.node[0].Network 	#received 	192
scalar Test.node[1].Network 	#received 	201
scalar Test.node[6].Network 	#received 	135
scalar Test.node[2].Network 	#received 	140
scalar Test.node[0].Network 	#received 	192
scalar Test.node[5].Network 	#received 	137
scalar Test.node[1].Network 	#received 	201
scalar Test.node[0].Network 	#received 	192
scalar Test.node[6].Network 	#received 	135
scalar Test.node[3].Network 	#received 	107
scalar Test.node[4].Network 	#received 	142
scalar Test.node[1].Network 	#received 	201
scalar Test.node[0].Network 	#received 	192
scalar Test.node[2].Network 	#received 	140
scalar Test.node[0].Network 	#received 	192
scalar Test.node[5].Network 	#received 	137
scalar Test.node[1].Network 	#received 	201
scalar Test.node[0].Network 	#received 	192
scalar Test.node[6].Network 	#received 	135
scalar Test.node[5].Network 	#received 	137
scalar Test.node[1].Network 	#received 	201
scalar Test.node[3].Network 	#received 	107
scalar Test.node[0].Network 	#received 	192
scalar Test.node[6].Network 	#received 	135
scalar Test.node[4].Network 	#received 	142
scalar Test.node[2].Network 	#received 	140
scalar Test.node[1].Network 	#received 	201
scalar Test.node[0].Network 	#received 	192
scalar Test.node[5].Network 	#received 	137
scalar Test.node[1].Network 	#received 	201
scalar Test.node[0].Network 	#received 	192
scalar Test.node[6].Network 	#received 	135
scalar Test.node[0].Network 	#received 	192
scalar Test.node[3].Network 	#received 	107
scalar Test.node[1].Network 	#received 	201
scalar Test.node[5].Network 	#received 	137
scalar Test.node[2].Network 	#received 	140
scalar Test.node[0].Network 	#received 	192
scalar Test.node[5].Network 	#received 	137
scalar Test.node[1].Network 	#received 	201
scalar Test.node[0].Network 	#received 	192
scalar Test.node[6].Network 	#received 	135
scalar Test.node[4].Network 	#received 	142
scalar Test.node[1].Network 	#received 	201
scalar Test.node[0].Network 	#received 	192
scalar Test.node[6].Network 	#received 	135
scalar Test.node[3].Network 	#received 	107
scalar Test.node[2].Network 	#received 	140
scalar Test.node[0].Network 	#received 	192
scalar Test.node[5].Network 	#received 	137
scalar Test.node[1].Network 	#received 	201
scalar Test.node[0].Network 	#received 	192
scalar Test.node[6].Network 	#received 	135
scalar Test.node[1].Network 	#received 	201
scalar Test.node[0].Network 	#received 	192
scalar Test.node[5].Network 	#received 	137
scalar Test.node[4].Network 	#received 	142
scalar Test.node[2].Network 	#received 	140
scalar Test.node[1].Network 	#received 	201
scalar Test.node[0].Network 	#received 	192
scalar Test.node[5].Network 	#received 	137
scalar Test.node[1].Network 	#received 	201
scalar Test.node[0].Network 	#received 	192
scalar Test.node[6].Network 	#received 	135
scalar Test.node[3].Network 	#received 	107
scalar Test.node[0].Network 	#received 	192
scalar Test.node[1].Network 	#received 	201
scalar Test.node[6].Network 	#received 	135
scalar Test.node[2].Network 	#received 	140
scalar Test.node[0].Network 	#received 	192
scalar Test.node[5].Network 	#received 	137
scalar Test.node[1].Network 	#received 	201
scalar Test.node[0].Network 	#received 	192
scalar Test.node[6].Network 	#received 	135
scalar Test.node[5].Network 	#received 	137
scalar Test.node[4].Network 	#received 	142
scalar Test.node[3].Network 	#received 	107
scalar Test.node[1].Network 	#received 	201
scalar Test.node[0].Network 	#received 	192
scalar Test.node[2].Network 	#received 	140
scalar Test.node[0].Network 	#received 	192
scalar Test.node[5].Network 	#received 	137
scalar Test.node[1].Network 	#received 	201
scalar Test.node[0].Network 	#received 	192
scalar Test.node[6].Network 	#received 	135
scalar Test.node[1].Network 	#received 	201
scalar Test.node[0].Network 	#received 	192
scalar Test.node[3].Network 	#received 	107
scalar Test.node[6].Network 	#received 	135
scalar Test.node[4].Network 	#received 	142
scalar Test.node[2].Network 	#received 	140
scalar Test.node[1].Network 	#received 	201
scalar Test.node[0].Network 	#received 	192
scalar Test.node[5].Network 	#received 	137
scalar Test.node[1].Network 	#received 	201
scalar Test.node[0].Network 	#received 	192
scalar Test.node[6].Network 	#received 	135
scalar Test.node[5].Network 	#received 	137
scalar Test.node[0].Network 	#received 	192
scalar Test.node[1].Network 	#received 	201
scalar Test.node[3].Network 	#received 	107
scalar Test.node[2].Network 	#received 	140
scalar Test.node[0].Network 	#received 	192
scalar Test.node[5].Network 	#received 	137
scalar Test.node[1].Network 	#received 	201
scalar Test.node[0].Network 	#received 	192
scalar Test.node[6].Network 	#received 	135
scalar Test.node[4].Network 	#received 	142
scalar Test.node[1].Network 	#received 	201
scalar Test.node[0].Network 	#received 	192
scalar Test.node[6].Network 	#received 	135
scalar Test.node[5].Network 	#received 	137
scalar Test.node[2].Network 	#received 	140
scalar Test.node[0].Network 	#received 	192
scalar Test.node[5].Network 	#received 	137
scalar Test.node[1].Network 	#received 	201
scalar Test.node[0].Network 	#received 	192
scalar Test.node[6].Network 	#received 	135
scalar Test.node[3].Network 	#received 	107
scalar Test.node[1].Network 	#received 	201
scalar Test.node[0].Network 	#received 	192
scalar Test.node[4].Network 	#received 	142
scalar Test.node[2].Network 	#received 	140
scalar Test.node[1].Network 	#received 	201
scalar Test.node[0].Network 	#received 	192
scalar Test.node[5].Network 	#received 	137
scalar Test.node[1].Network 	#received 	201
scalar Test.node[0].Network 	#received 	192
scalar Test.node[6].Network 	#received 	135
scalar Test.node[3].Network 	#received 	107
scalar Test.node[0].Network 	#received 	192
scalar Test.node[5].Network 	#received 	137
scalar Test.node[1].Network 	#received 	201
scalar Test.node[6].Network 	#received 	135
scalar Test.node[2].Network 	#received 	140
scalar Test.node[0].Network 	#received 	192
scalar Test.node[5].Network 	#received 	137
scalar Test.node[1].Network 	#received 	201
scalar Test.node[0].Network 	#received 	192
scalar Test.node[6].Network 	#received 	135
scalar Test.node[4].Network 	#received 	142
scalar Test.node[1].Network 	#received 	201
scalar Test.node[0].Network 	#received 	192
scalar Test.node[3].Network 	#received 	107
scalar Test.node[2].Network 	#received 	140
scalar Test.node[0].Network 	#received 	192
scalar Test.node[5].Network 	#received 	137
scalar Test.node[1].Network 	#received 	201
scalar Test.node[0].Network 	#received 	192
scalar Test.node[6].Network 	#received 	135
scalar Test.node[1].Network 	#received 	201
scalar Test.node[5].Network 	#received 	137
scalar Test.node[0].Network 	#received 	192
scalar Test.node[6].Network 	#received 	135
scalar Test.node[4].Network 	#received 	142
scalar Test.node[3].Network 	#received 	107
scalar Test.node[2].Network 	#received 	140
scalar Test.node[1].Network 	#received 	201
scalar Test.node[0].Network 	#received 	192
scalar Test.node[5].Network 	#received 	137
scalar Test.node[1].Network 	#received 	201
scalar Test.node[0].Network 	#received 	192
scalar Test.node[6].Network 	#received 	135
scalar Test.node[0].Network 	#received 	192
scalar Test.node[1].Network 	#received 	201
scalar Test.node[2].Network 	#received 	140
scalar Test.node[0].Network 	#received 	192
scalar Test.node[5].Network 	#received 	137
scalar Test.node[1].Network 	#received 	201
scalar Test.node[0].Network 	#received 	192
scalar Test.node[6].Network 	#received 	135
scalar Test.node[5].Network 	#received 	137
scalar Test.node[3].Network 	#received 	107
scalar Test.node[4].Network 	#received 	142
scalar Test.node[1].Network 	#received 	201
scalar Test.node[0].Network 	#received 	192
scalar Test.node[6].Network 	#received 	135
scalar Test.node[2].Network 	#received 	140
scalar Test.node[0].Network 	#received 	192
scalar Test.node[5].Network 	#received 	137
scalar Test.node[1].Network 	#received 	201
scalar Test.node[0].Network 	#received 	192
scalar Test.node[6].Network 	#received 	135
scalar Test.node[1].Network 	#received 	201
scalar Test.node[3].Network 	#received 	107
scalar Test.node[0].Network 	#received 	192
scalar Test.node[5].Network 	#received 	137
scalar Test.node[4].Network 	#received 	142
scalar Test.node[2].Network 	#received 	140
scalar Test.node[1].Network 	#received 	201
scalar Test.node[0].Network 	#received 	192
scalar Test.node[5].Network 	#received 	137
scalar Test.node[1].Network 	#received 	201
scalar Test.node[0].Network 	#received 	192
scalar Test.node[6].Network 	#received 	135
scalar Test.node[0].Network 	#received 	192
scalar Test.node[3].Network 	#received 	107
scalar Test.node[1].Network 	#received 	201
scalar Test.node[6].Network 	#received 	135
scalar Test.node[2].Network 	#received 	140
scalar Test.node[0].Network 	#received 	192
scalar Test.node[5].Network 	#received 	137
scalar Test.node[1].Network 	#received 	201
scalar Test.node[0].Network 	#received 	192
scalar Test.node[6].Network 	#received 	135
scalar Test.node[4].Network 	#received 	142
scalar Test.node[1].Network 	#received 	201
scalar Test.node[0].Network 	#received 	192
scalar Test.node[5].Network 	#received 	137
scalar Test.node[3].Network 	#received 	107
scalar Test.node[2].Network 	#received 	140
scalar Test.node[0].Network 	#received 	192
scalar Test.node[5].Network 	#received 	137
scalar Test.node[1].Network 	#received 	201
scalar Test.node[0].Network 	#received 	192
scalar Test.node[6].Network 	#received 	135
scalar Test.node[1].Network 	#received 	201
scalar Test.node[0].Network 	#received 	192
scalar Test.node[6].Network 	#received 	135
scalar Test.node[4].Network 	#received 	142
scalar Test.node[2].Network 	#received 	140
scalar Test.node[1].Network 	#received 	201
scalar Test.node[0].Network 	#received 	192
scalar Test.node[5].Network 	#received 	137
scalar Test.node[1].Network 	#received 	201
scalar Test.node[0].Network 	#received 	192
scalar Test.node[6].Network 	#received 	135
scalar Test.node[3].Network 	#received 	107
scalar Test.node[5].Network 	#received 	137
scalar Test.node[0].Network 	#received 	192
scalar Test.node[1].Network 	#received 	201
scalar Test.node[2].Network 	#received 	140
scalar Test.node[0].Network 	#received 	192
scalar Test.node[5].Network 	#received 	137
scalar Test.node[1].Network 	#received 	201
scalar Test.node[0].Network 	#received 	192
scalar Test.node[6].Network 	#received 	135
scalar Test.node[4].Network 	#received 	142
scalar Test.node[3].Network 	#received 	107
scalar Test.node[1].Network 	#received 	201
scalar Test.node[0].Network 	#received 	192
scalar Test.node[6].Network 	#received 	135
scalar Test.node[2].Network 	#received 	140
scalar Test.node[0].Network 	#received 	192
scalar Test.node[5].Network 	#received 	137
scalar Test.node[1].Network 	#received 	201
scalar Test.node[0].Network 	#received 	192
scalar Test.node[6].Network 	#received 	135
scalar Test.node[5].Network 	#received 	137
scalar Test.node[1].Network 	#received 	201
scalar Test.node[0].Network 	#received 	192
scalar Test.node[3].Network 	#received 	107
scalar Test.node[4].Network 	#received 	142
scalar Test.node[2].Network 	#received 	140
scalar Test.node[1].Network 	#received 	201
scalar Test.node[0].Network 	#received 	192
scalar Test.node[5].Network 	#received 	137
scalar Test.node[1].Network 	#received 	201
scalar Test.node[0].Network 	#received 	192
scalar Test.node[6].Network 	#received 	135
scalar Test.node[0].Network 	#received 	192
scalar Test.node[1].Network 	#received 	201
scalar Test.node[6].Network 	#received 	135
scalar Test.node[5].Network 	#received 	137
scalar Test.node[3].Network 	#received 	107
scalar Test.node[2].Network 	#received 	140
scalar Test.node[0].Network 	#received 	192
scalar Test.node[5].Network 	#received 	137
scalar Test.node[1].Network 	#received 	201
scalar Test.node[0].Network 	#received 	192
scalar Test.node[6].Network 	#received 	135
scalar Test.node[4].Network 	#received 	142
scalar Test.node[1].Network 	#received 	201
scalar Test.node[0].Network 	#received 	192
scalar Test.node[2].Network 	#received 	140
scalar Test.node[0].Network 	#received 	192
scalar Test.node[5].Network 	#received 	137
scalar Test.node[1].Network 	#received 	201
scalar Test.node[0].Network 	#received 	192
scalar Test.node[6].Network 	#received 	135
scalar Test.node[3].Network 	#received 	107
scalar Test.node[1].Network 	#received 	201
scalar Test.node[0].Network 	#received 	192
scalar Test.node[5].Network 	#received 	137
scalar Test.node[6].Network 	#received 	135
scalar Test.node[4].Network 	#received 	142
scalar Test.node[2].Network 	#received 	140
scalar Test.node[1].Network 	#received 	201
scalar Test.node[0].Network 	#received 	192
scalar Test.node[5].Network 	#received 	137
scalar Test.node[1].Network 	#received 	201
scalar Test.node[0].Network 	#received 	192
scalar Test.node[6].Network 	#received 	135
scalar Test.node[3].Network 	#received 	107
scalar Test.node[0].Network 	#received 	192
scalar Test.node[1].Network 	#received 	201
scalar Test.node[2].Network 	#received 	140
scalar Test.node[0].Network 	#received 	192
scalar Test.node[5].Network 	#received 	137
scalar Test.node[1].Network 	#received 	201
scalar Test.node[0].Network 	#received 	192
scalar Test.node[6].Network 	#received 	135
scalar Test.node[5].Network 	#received 	137
scalar Test.node[4].Network 	#received 	142
scalar Test.node[1].Network 	#received 	201
scalar Test.node[0].Network 	#received 	192
scalar Test.node[3].Network 	#received 	107
scalar Test.node[6].Network 	#received 	135
scalar Test.node[2].Network 	#received 	140
scalar Test.node[0].Network 	#received 	192
scalar Test.node[5].Network 	#received 	137
scalar Test.node[1].Network 	#received 	201
scalar Test.node[0].Network 	#received 	192
scalar Test.node[6].Network 	#received 	135
scalar Test.node[1].Network 	#received 	201
scalar Test.node[0].Network 	#received 	192
scalar Test.node[4].Network 	#received 	142
scalar Test.node[3].Network 	#received 	107
scalar Test.node[2].Network 	#received 	140
scalar Test.node[1].Network 	#received 	201
scalar Test.node[0].Network 	#received 	192
scalar Test.node[5].Network 	#received 	137
scalar Test.node[1].Network 	#received 	201
scalar Test.node[0].Network 	#received 	192
scalar Test.node[6].Network 	#received 	135
scalar Test.node[5].Network 	#received 	137
scalar Test.node[0].Network 	#received 	192
scalar Test.node[1].Network 	#received 	201
scalar Test.node[6].Network 	#received 	135
scalar Test.node[2].Network 	#received 	140
scalar Test.node[0].Network 	#received 	192
scalar Test.node[5].Network 	#received 	137
scalar Test.node[1].Network 	#received 	201
scalar Test.node[0].Network 	#received 	192
scalar Test.node[6].Network 	#received 	135
scalar Test.node[3].Network 	#received 	107
scalar Test.node[4].Network 	#received 	142
scalar Test.node[1].Network 	#received 	201
scalar Test.node[0].Network 	#received 	192
scalar Test.node[5].Network 	#received 	137
scalar Test.node[2].Network 	#received 	140
scalar Test.node[0].Network 	#received 	192
scalar Test.node[5].Network 	#received 	137
scalar Test.node[1].Network 	#received 	201
scalar Test.node[0].Network 	#received 	192
scalar Test.node[6].Network 	#received 	135
scalar Test.node[1].Network 	#received 	201
scalar Test.node[3].Network 	#received 	107
scalar Test.node[0].Network 	#received 	192
scalar Test.node[6].Network 	#received 	135
scalar Test.node[4].Network 	#received 	142
scalar Test.node[2].Network 	#received 	140
scalar Test.node[1].Network 	#received 	201
scalar Test.node[0].Network 	#received 	192
scalar Test.node[5].Network 	#received 	137
scalar Test.node[1].Network 	#received 	201
scalar Test.node[0].Network 	#received 	192
scalar Test.node[6].Network 	#received 	135
scalar Test.node[0].Network 	#received 	192
scalar Test.node[5].Network 	#received 	137
scalar Test.node[3].Network 	#received 	107
scalar Test.node[1].Network 	#received 	201
scalar Test.node[2].Network 	#received 	140
scalar Test.node[0].Network 	#received 	192
scalar Test.node[5].Network 	#received 	137
scalar Test.node[1].Network 	#received 	201
scalar Test.node[0].Network 	#received 	192
scalar Test.node[6].Network 	#received 	135
scalar Test.node[4].Network 	#received 	142
scalar Test.node[1].Network 	#received 	201
scalar Test.node[0].Network 	#received 	192
scalar Test.node[6].Network 	#received 	135
scalar Test.node[3].Network 	#received 	107
scalar Test.node[2].Network 	#received 	140
scalar Test.node[0].Network 	#received 	192
scalar Test.node[5].Network 	#received 	137
scalar Test.node[1].Network 	#received 	201
scalar Test.node[0].Network 	#received 	192
scalar Test.node[6].Network 	#received 	135
scalar Test.node[1].Network 	#received 	201
scalar Test.node[5].Network 	#received 	137
scalar Test.node[0].Network 	#received 	192
scalar Test.node[4].Network 	#received 	142
scalar Test.node[2].Network 	#received 	140
scalar Test.node[1].Network 	#received 	201
scalar Test.node[0].Network 	#received 	192
scalar Test.node[5].Network 	#received 	137
scalar Test.node[1].Network 	#received 	201
scalar Test.node[0].Network 	#received 	192
scalar Test.node[6].Network 	#received 	135
scalar Test.node[3].Network 	#received 	107
scalar Test.node[0].Network 	#received 	192
scalar Test.node[1].Network 	#received 	201
scalar Test.node[6].Network 	#received 	135
scalar Test.node[2].Network 	#received 	140
scalar Test.node[0].Network 	#received 	192
scalar Test.node[5].Network 	#received 	137
scalar Test.node[1].Network 	#received 	201
scalar Test.node[0].Network 	#received 	192
scalar Test.node[6].Network 	#received 	135
scalar Test.node[5].Network 	#received 	137
scalar Test.node[4].Network 	#received 	142
scalar Test.node[3].Network 	#received 	107
scalar Test.node[1].Network 	#received 	201
scalar Test.node[0].Network 	#received 	192
scalar Test.node[2].Network 	#received 	140
scalar Test.node[0].Network 	#received 	192
scalar Test.node[5].Network 	#received 	137
scalar Test.node[1].Network 	#received 	201
scalar Test.node[0].Network 	#received 	192
scalar Test.node[6].Network 	#received 	135
scalar Test.node[1].Network 	#received 	201
scalar Test.node[0].Network 	#received 	192
scalar Test.node[3].Network 	#received 	107
scalar Test.node[6].Network 	#received 	135
scalar Test.node[5].Network 	#received 	137
scalar Test.node[4].Network 	#received 	142
scalar Test.node[2].Network 	#received 	140
scalar Test.node[1].Network 	#received 	201
scalar Test.node[0].Network 	#received 	192
scalar Test.node[5].Network 	#received 	137
scalar Test.node[1].Network 	#received 	201
scalar Test.node[0].Network 	#received 	192
scalar Test.node[6].Network 	#received 	135
scalar Test.node[0].Network 	#received 	192
scalar Test.node[1].Network 	#received 	201
scalar Test.node[3].Network 	#received 	107
scalar Test.node[2].Network 	#received 	140
scalar Test.node[0].Network 	#received 	192
scalar Test.node[5].Network 	#received 	137
scalar Test.node[1].Network 	#received 	201
scalar Test.node[0].Network 	#received 	192
scalar Test.node[6].Network 	#received 	135
scalar Test.node[4].Network 	#received 	142
scalar Test.node[1].Network 	#received 	201
scalar Test.node[0].Network 	#received 	192
scalar Test.node[5].Network 	#received 	137
scalar Test.node[6].Network 	#received 	135
scalar Test.node[2].Network 	#received 	140
scalar Test.node[0].Network 	#received 	192
scalar Test.node[5].Network 	#received 	137
scalar Test.node[1].Network 	#received 	201
scalar Test.node[0].Network 	#received 	192
scalar Test.node[6].Network 	#received 	135
scalar Test.node[3].Network 	#received 	107
scalar Test.node[1].Network 	#received 	201
scalar Test.node[0].Network 	#received 	192
scalar Test.node[4].Network 	#received 	142
scalar Test.node[2].Network 	#received 	140
scalar Test.node[1].Network 	#received 	201
scalar Test.node[0].Network 	#received 	192
scalar Test.node[5].Network 	#received 	137
scalar Test.node[1].Network 	#received 	201
scalar Test.node[0].Network 	#received 	192
scalar Test.node[6].Network 	#received 	135
scalar Test.node[5].Network 	#received 	137
scalar Test.node[3].Network 	#received 	107
scalar Test.node[0].Network 	#received 	192
scalar Test.node[1].Network 	#received 	201
scalar Test.node[6].Network 	#received 	135
scalar Test.node[2].Network 	#received 	140
scalar Test.node[0].Network 	#received 	192
scalar Test.node[5].Network 	#received 	137
scalar Test.node[1].Network 	#received 	201
scalar Test.node[0].Network 	#received 	192
scalar Test.node[6].Network 	#received 	135
scalar Test.node[4].Network 	#received 	142
scalar Test.node[1].Network 	#received 	201
scalar Test.node[0].Network 	#received 	192
scalar Test.node[3].Network 	#received 	107
scalar Test.node[2].Network 	#received 	140
scalar Test.node[0].Network 	#received 	192
scalar Test.node[5].Network 	#received 	137
scalar Test.node[1].Network 	#received 	201
scalar Test.node[0].Network 	#received 	192
scalar Test.node[6].Network 	#received 	135
scalar Test.node[5].Network 	#received 	137
scalar Test.node[1].Network 	#received 	201
scalar Test.node[0].Network 	#received 	192
scalar Test.node[6].Network 	#received 	135
scalar Test.node[4].Network 	#received 	142
scalar Test.node[3].Network 	#received 	107
scalar Test.node[2].Network 	#received 	140
scalar Test.node[1].Network 	#received 	201
scalar Test.node[0].Network 	#received 	192
scalar Test.node[5].Network 	#received 	137
scalar Test.node[1].Network 	#received 	201
scalar Test.node[0].Network 	#received 	192
scalar Test.node[6].Network 	#received 	135
scalar Test.node[0].Network 	#received 	192
scalar Test.node[1].Network 	#received 	201
scalar Test.node[5].Network 	#received 	137
scalar Test.node[2].Network 	#received 	140
scalar Test.node[0].Network 	#received 	192
scalar Test.node[5].Network 	#received 	137
scalar Test.node[1].Network 	#received 	201
scalar Test.node[0].Network 	#received 	192
scalar Test.node[6].Network 	#received 	135
scalar Test.node[3].Network 	#received 	107
scalar Test.node[4].Network 	#received 	142
scalar Test.node[1].Network 	#received 	201
scalar Test.node[0].Network 	#received 	192
scalar Test.node[6].Network 	#received 	135
scalar Test.node[2].Network 	#received 	140
scalar Test.node[0].Network 	#received 	192
scalar Test.node[5].Network 	#received 	137
scalar Test.node[1].Network 	#received 	201
scalar Test.node[0].Network 	#received 	192
scalar Test.node[6].Network 	#received 	135
scalar Test.node[1].Network 	#received 	201
scalar Test.node[3].Network 	#received 	107
scalar Test.node[0].Network 	#received 	192
scalar Test.node[5].Network 	#received 	137
scalar Test.node[4].Network 	#received 	142
scalar Test.node[2].Network 	#received 	140
scalar Test.node[1].Network 	#received 	201
scalar Test.node[0].Network 	#received 	192
scalar Test.node[5].Network 	#received 	137
scalar Test.node[1].Network 	#received 	201
scalar Test.node[0].Network 	#received 	192
scalar Test.node[6].Network 	#received 	135
scalar Test.node[0].Network 	#received 	192
scalar Test.node[3].Network 	#received 	107
scalar Test.node[1].Network 	#received 	201
scalar Test.node[6].Network 	#received 	135
scalar Test.node[2].Network 	#received 	140
scalar Test.node[0].Network 	#received 	192
scalar Test.node[5].Network 	#received 	137
scalar Test.node[1].Network 	#received 	201
scalar Test.node[0].Network 	#received 	192
scalar Test.node[6].Network 	#received 	135
scalar Test.node[5].Network 	#received 	137
scalar Test.node[4].Network 	#received 	142
scalar Test.node[1].Network 	#received 	201
scalar Test.node[0].Network 	#received 	192
scalar Test.node[3].Network 	#received 	107
scalar Test.node[2].Network 	#received 	140
scalar Test.node[0].Network 	#received 	192
scalar Test.node[5].Network 	#received 	137
scalar Test.node[1].Network 	#received 	201
scalar Test.node[0].Network 	#received 	192
scalar Test.node[6].Network 	#received 	135
scalar Test.node[1].Network 	#received 	201
scalar Test.node[0].Network 	#received 	192
scalar Test.node[6].Network 	#received 	135
scalar Test.node[4].Network 	#received 	142
scalar Test.node[2].Network 	#received 	140
scalar Test.node[1].Network 	#received 	201
scalar Test.node[0].Network 	#received 	192
scalar Test.node[5].Network 	#received 	137
scalar Test.node[1].Network 	#received 	201
scalar Test.node[0].Network 	#received 	192
scalar Test.node[6].Network 	#received 	135
scalar Test.node[5].Network 	#received 	137
scalar Test.node[3].Network 	#received 	107
scalar Test.node[0].Network 	#received 	192
scalar Test.node[1].Network 	#received 	201
scalar Test.node[2].Network 	#received 	140
scalar Test.node[0].Network 	#received 	192
scalar Test.node[5].Network 	#received 	137
scalar Test.node[1].Network 	#received 	201
scalar Test.node[0].Network 	#received 	192
scalar Test.node[6].Network 	#received 	135
scalar Test.node[4].Network 	#received 	142
scalar Test.node[3].Network 	#received 	107
scalar Test.node[1].Network 	#received 	201
scalar Test.node[0].Network 	#received 	192
scalar Test.node[6].Network 	#received 	135
scalar Test.node[5].Network 	#received 	137
scalar Test.node[2].Network 	#received 	140
scalar Test.node[0].Network 	#received 	192
scalar Test.node[5].Network 	#received 	137
scalar Test.node[1].Network 	#received 	201
scalar Test.node[0].Network 	#received 	192
scalar Test.node[6].Network 	#received 	135
scalar Test.node[1].Network 	#received 	201
scalar Test.node[0].Network 	#received 	192
scalar Test.node[3].Network 	#received 	107
scalar Test.node[4].Network 	#received 	142
scalar Test.node[2].Network 	#received 	140
scalar Test.node[1].Network 	#received 	201
scalar Test.node[0].Network 	#received 	192
scalar Test.node[5].Network 	#received 	137
scalar Test.node[1].Network 	#received 	201
scalar Test.node[0].Network 	#received 	192
scalar Test.node[6].Network 	#received 	135
scalar Test.node[0].Network 	#received 	192
scalar Test.node[5].Network 	#received 	137
scalar Test.node[1].Network 	#received 	201
scalar Test.node[6].Network 	#received 	135
scalar Test.node[3].Network 	#received 	107
scalar Test.node[2].Network 	#received 	140
scalar Test.node[0].Network 	#received 	192
scalar Test.node[5].Network 	#received 	137
scalar Test.node[1].Network 	#received 	201
scalar Test.node[0].Network 	#received 	192
scalar Test.node[6].Network 	#received 	135
scalar Test.node[4].Network 	#received 	142
scalar Test.node[1].Network 	#received 	201
scalar Test.node[0].Network 	#received 	192
scalar Test.node[2].Network 	#received 	140
scalar Test.node[0].Network 	#received 	192
scalar Test.node[5].Network 	#received 	137
scalar Test.node[1].Network 	#received 	201
scalar Test.node[0].Network 	#received 	192
scalar Test.node[6].Network 	#received 	135
scalar Test.node[3].Network 	#received 	107
scalar Test.node[1].Network 	#received 	201
scalar Test.node[5].Network 	#received 	137
scalar Test.node[0].Network 	#received 	192
scalar Test.node[6].Network 	#received 	135
scalar Test.node[4].Network 	#received 	142
scalar Test.node[2].Network 	#received 	140
scalar Test.node[1].Network 	#received 	201
scalar Test.node[0].Network 	#received 	192
scalar Test.node[5].Network 	#received 	137
scalar Test.node[1].Network 	#received 	201
scalar Test.node[0].Network 	#received 	192
scalar Test.node[6].Network 	#received 	135
scalar Test.node[3].Network 	#received 	107
scalar Test.node[0].Network 	#received 	192
scalar Test.node[1].Network 	#received 	201
scalar Test.node[2].Network 	#received 	140
scalar Test.node[0].Network 	#received 	192
scalar Test.node[5].Network 	#received 	137
scalar Test.node[1].Network 	#received 	201
scalar Test.node[0].Network 	#received 	192
scalar Test.node[6].Network 	#received 	135
scalar Test.node[5].Network 	#received 	137
scalar Test.node[4].Network 	#received 	142
scalar Test.node[1].Network 	#received 	201
scalar Test.node[0].Network 	#received 	192
scalar Test.node[3].Network 	#received 	107
scalar Test.node[6].Network 	#received 	135
scalar Test.node[2].Network 	#received 	140
scalar Test.node[0].Network 	#received 	192
scalar Test.node[5].Network 	#received 	137
scalar Test.node[1].Network 	#received 	201
scalar Test.node[0].Network 	#received 	192
scalar Test.node[6].Network 	#received 	135
scalar Test.node[1].Network 	#received 	201
scalar Test.node[0].Network 	#received 	192
scalar Test.node[5].Network 	#received 	137
scalar Test.node[4].Network 	#received 	142
scalar Test.node[3].Network 	#received 	107
scalar Test.node[2].Network 	#received 	140
scalar Test.node[1].Network 	#received 	201
scalar Test.node[0].Network 	#received 	192
scalar Test.node[5].Network 	#received 	137
scalar Test.node[1].Network 	#received 	201
scalar Test.node[0].Network 	#received 	192
scalar Test.node[6].Network 	#received 	135
scalar Test.node[0].Network 	#received 	192
scalar Test.node[1].Network 	#received 	201
scalar Test.node[6].Network 	#received 	135
scalar Test.node[2].Network 	#received 	140
scalar Test.node[0].Network 	#received 	192
scalar Test.node[5].Network 	#received 	137
scalar Test.node[1].Network 	#received 	201
scalar Test.node[0].Network 	#received 	192
scalar Test.node[6].Network 	#received 	135
scalar Test.node[3].Network 	#received 	107
scalar Test.node[4].Network 	#received 	142
scalar Test.node[1].Network 	#received 	201
scalar Test.node[0].Network 	#received 	192
scalar Test.node[5].Network 	#received 	137
scalar Test.node[2].Network 	#received 	140
scalar Test.node[0].Network 	#received 	192
scalar Test.node[5].Network 	#received 	137
scalar Test.node[1].Network 	#received 	201
scalar Test.node[0].Network 	#received 	192
scalar Test.node[6].Network 	#received 	135
scalar Test.node[1].Network 	#received 	201
scalar Test.node[3].Network 	#received 	107
scalar Test.node[0].Network 	#received 	192
scalar Test.node[6].Network 	#received 	135
scalar Test.node[4].Network 	#received 	142
scalar Test.node[2].Network 	#received 	140
scalar Test.node[1].Network 	#received 	201
scalar Test.node[0].Network 	#received 	192
scalar Test.node[5].Network 	#received 	137
scalar Test.node[1].Network 	#received 	201
scalar Test.node[0].Network 	#received 	192
scalar Test.node[6].Network 	#received 	135
scalar Test.node[5].Network 	#received 	137
scalar Test.node[0].Network 	#received 	192
scalar Test.node[3].Network 	#received 	107
scalar Test.node[1].Network 	#received 	201
scalar Test.node[2].Network 	#received 	140
scalar Test.node[0].Network 	#received 	192
scalar Test.node[5].Network 	#received 	137
scalar Test.node[1].Network 	#received 	201
scalar Test.node[0].Network 	#received 	192
scalar Test.node[6].Network 	#received 	135
scalar Test.node[4].Network 	#received 	142
scalar Test.node[1].Network 	#received 	201
scalar Test.node[0].Network 	#received 	192
scalar Test.node[6].Network 	#received 	135
scalar Test.node[3].Network 	#received 	107
scalar Test.node[2].Network 	#received 	140
scalar Test.node[0].Network 	#received 	192
scalar Test.node[5].Network 	#received 	137
scalar Test.node[1].Network 	#received 	201
scalar Test.node[0].Network 	#received 	192
scalar Test.node[6].Network 	#received 	135
scalar Test.node[5].Network 	#received 	137
scalar Test.node[1].Network 	#received 	201
scalar Test.node[0].Network 	#received 	192
scalar Test.node[4].Network 	#received 	142
scalar Test.node[2].Network 	#received 	140
scalar Test.node[1].Network 	#received 	201
scalar Test.node[0].Network 	#received 	192
scalar Test.node[5].Network 	#received 	137
scalar Test.node[1].Network 	#received 	201
scalar Test.node[0].Network 	#received 	192
scalar Test.node[6].Network 	#received 	135
scalar Test.node[3].Network 	#received 	107
scalar Test.node[0].Network 	#received 	192
scalar Test.node[1].Network 	#received 	201
scalar Test.node[6].Network 	#received 	135
scalar Test.node[5].Network 	#received 	137
scalar Test.node[2].Network 	#received 	140
scalar Test.node[0].Network 	#received 	192
scalar Test.node[5].Network 	#received 	137
scalar Test.node[1].Network 	#received 	201
scalar Test.node[0].Network 	#received 	192
scalar Test.node[6].Network 	#received 	135
scalar Test.node[4].Network 	#received 	142
scalar Test.node[3].Network 	#received 	107
scalar Test.node[1].Network 	#received 	201
scalar Test.node[0].Network 	#received 	192
scalar Test.node[2].Network 	#received 	140
scalar Test.node[0].Network 	#received 	192
scalar Test.node[5].Network 	#received 	137
scalar Test.node[1].Network 	#received 	201
scalar Test.node[0].Network 	#received 	192
scalar Test.node[6].Network 	#received 	135
scalar Test.node[1].Network 	#received 	201
scalar Test.node[0].Network 	#received 	192
scalar Test.node[5].Network 	#received 	137
scalar Test.node[3].Network 	#received 	107
scalar Test.node[6].Network 	#received 	135
scalar Test.node[4].Network 	#received 	142
scalar Test.node[2].Network 	#received 	140
scalar Test.node[1].Network 	#received 	201
scalar Test.node[0].Network 	#received 	192
scalar Test.node[5].Network 	#received 	137
scalar Test.node[1].Network 	#received 	201
scalar Test.node[0].Network 	#received 	192
scalar Test.node[6].Network 	#received 	135
scalar Test.node[0].Network 	#received 	192
scalar Test.node[1].Network 	#received 	201
scalar Test.node[3].Network 	#received 	107
scalar Test.node[2].Network 	#received 	140
scalar Test.node[0].Network 	#received 	192
scalar Test.node[5].Network 	#received 	137
scalar Test.node[1].Network 	#received 	201
scalar Test.node[0].Network 	#received 	192
scalar Test.node[6].Network 	#received 	135
scalar Test.node[5].Network 	#received 	137
scalar Test.node[4].Network 	#received 	142
scalar Test.node[1].Network 	#received 	201
scalar Test.node[0].Network 	#received 	192
scalar Test.node[6].Network 	#received 	135
scalar Test.node[2].Network 	#received 	140
scalar Test.node[0].Network 	#received 	192
scalar Test.node[5].Network 	#received 	137
scalar Test.node[1].Network 	#received 	201
scalar Test.node[0].Network 	#received 	192
scalar Test.node[6].Network 	#received 	135
scalar Test.node[3].Network 	#received 	107
scalar Test.node[1].Network 	#received 	201
scalar Test.node[0].Network 	#received 	192
scalar Test.node[4].Network 	#received 	142
scalar Test.node[2].Network 	#received 	140
scalar Test.node[1].Network 	#received 	201
scalar Test.node[0].Network 	#received 	192
scalar Test.node[5].Network 	#received 	137
scalar Test.node[1].Network 	#received 	201
scalar Test.node[0].Network 	#received 	192
scalar Test.node[6].Network 	#received 	135
scalar Test.node[5].Network 	#received 	137
scalar Test.node[3].Network 	#received 	107
scalar Test.node[0].Network 	#received 	192
scalar Test.node[1].Network 	#received 	201
scalar Test.node[6].Network 	#received 	135
scalar Test.node[2].Network 	#received 	140
scalar Test.node[0].Network 	#received 	192
scalar Test.node[5].Network 	#received 	137
scalar Test.node[1].Network 	#received 	201
scalar Test.node[0].Network 	#received 	192
scalar Test.node[6].Network 	#received 	135
scalar Test.node[4].Network 	#received 	142
scalar Test.node[1].Network 	#received 	201
scalar Test.node[0].Network 	#received 	192
scalar Test.node[3].Network 	#received 	107
scalar Test.node[5].Network 	#received 	137
scalar Test.node[2].Network 	#received 	140
scalar Test.node[0].Network 	#received 	192
scalar Test.node[5].Network 	#received 	137
scalar Test.node[1].Network 	#received 	201
scalar Test.node[0].Network 	#received 	192
scalar Test.node[6].Network 	#received 	135
scalar Test.node[1].Network 	#received 	201
scalar Test.node[0].Network 	#received 	192
scalar Test.node[6].Network 	#received 	135
scalar Test.node[4].Network 	#received 	142
scalar Test.node[3].Network 	#received 	107
scalar Test.node[2].Network 	#received 	140
scalar Test.node[1].Network 	#received 	201
scalar Test.node[0].Network 	#received 	192
scalar Test.node[5].Network 	#received 	137
scalar Test.node[1].Network 	#received 	201
scalar Test.node[0].Network 	#received 	192
scalar Test.node[6].Network 	#received 	135
scalar Test.node[0].Network 	#received 	192
scalar Test.node[5].Network 	#received 	137
scalar Test.node[1].Network 	#received 	201
scalar Test.node[2].Network 	#received 	140
scalar Test.node[0].Network 	#received 	192
scalar Test.node[5].Network 	#received 	137
scalar Test.node[1].Network 	#received 	201
scalar Test.node[0].Network 	#received 	192
scalar Test.node[6].Network 	#received 	135
scalar Test.node[3].Network 	#received 	107
scalar Test.node[4].Network 	#received 	142
scalar Test.node[1].Network 	#received 	201
scalar Test.node[0].Network 	#received 	192
scalar Test.node[6].Network 	#received 	135
scalar Test.node[2].Network 	#received 	140
scalar Test.node[0].Network 	#received 	192
scalar Test.node[5].Network 	#received 	137
scalar Test.node[1].Network 	#received 	201
scalar Test.node[0].Network 	#received 	192
scalar Test.node[6].Network 	#received 	135
scalar Test.node[1].Network 	#received 	201
scalar Test.node[5].Network 	#received 	137
scalar Test.node[3].Network 	#received 	107
scalar Test.node[0].Network 	#received 	192
scalar Test.node[4].Network 	#received 	142
scalar Test.node[2].Network 	#received 	140
scalar Test.node[1].Network 	#received 	201
scalar Test.node[0].Network 	#received 	192
scalar Test.node[5].Network 	#received 	137
scalar Test.node[1].Network 	#received 	201
scalar Test.node[0].Network 	#received 	192
scalar Test.node[6].Network 	#received 	135
scalar Test.node[0].Network 	#received 	192
scalar Test.node[3].Network 	#received 	107
scalar Test.node[1].Network 	#received 	201
scalar Test.node[6].Network 	#received 	135
scalar Test.node[2].Network 	#received 	140
scalar Test.node[0].Network 	#received 	192
scalar Test.node[5].Network 	#received 	137
scalar Test.node[1].Network 	#received 	201
scalar Test.node[0].Network 	#received 	192
scalar Test.node[6].Network 	#received 	135
scalar Test.node[5].Network 	#received 	137
scalar Test.node[4].Network 	#received 	142
scalar Test.node[1].Network 	#received 	201
scalar Test.node[0].Network 	#received 	192
scalar Test.node[3].Network 	#received 	107
scalar Test.node[2].Network 	#received 	140
scalar Test.node[0].Network 	#received 	192
scalar Test.node[5].Network 	#received 	137
scalar Test.node[1].Network 	#received 	201
scalar Test.node[0].Network 	#received 	192
scalar Test.node[6].Network 	#received 	135
scalar Test.node[1].Network 	#received 	201
scalar Test.node[0].Network 	#received 	192
scalar Test.node[6].Network 	#received 	135
scalar Test.node[5].Network 	#received 	137
scalar Test.node[4].Network 	#received 	142
scalar Test.node[2].Network 	#received 	140
scalar Test.node[1].Network 	#received 	201
scalar Test.node[0].Network 	#received 	192
scalar Test.node[5].Network 	#received 	137
scalar Test.node[1].Network 	#received 	201
scalar Test.node[0].Network 	#received 	192
scalar Test.node[6].Network 	#received 	135
scalar Test.node[3].Network 	#received 	107
scalar Test.node[0].Network 	#received 	192
scalar Test.node[1].Network 	#received 	201
scalar Test.node[2].Network 	#received 	140
scalar Test.node[0].Network 	#received 	192
scalar Test.node[5].Network 	#received 	137
scalar Test.node[1].Network 	#received 	201
scalar Test.node[0].Network 	#received 	192
scalar Test.node[6].Network 	#received 	135
scalar Test.node[4].Network 	#received 	142
scalar Test.node[3].Network 	#received 	107
scalar Test.node[1].Network 	#received 	201
scalar Test.node[0].Network 	#received 	192
scalar Test.node[5].Network 	#received 	137
scalar Test.node[6].Network 	#received 	135
scalar Test.node[2].Network 	#received 	140
scalar Test.node[0].Network 	#received 	192
scalar Test.node[5].Network 	#received 	137
scalar Test.node[1].Network 	#received 	201
scalar Test.node[0].Network 	#received 	192
scalar Test.node[6].Network 	#received 	135
scalar Test.node[1].Network 	#received 	201
scalar Test.node[0].Network 	#received 	192
scalar Test.node[3].Network 	#received 	107
scalar Test.node[4].Network 	#received 	142
scalar Test.node[2].Network 	#received 	140
scalar Test.node[1].Network 	#received 	201
scalar Test.node[0].Network 	#received 	192
scalar Test.node[5].Network 	#received 	137
scalar Test.node[1].Network 	#received 	201
scalar Test.node[0].Network 	#received 	192
scalar Test.node[6].Network 	#received 	135
scalar Test.node[5].Network 	#received 	137
scalar Test.node[0].Network 	#received 	192
scalar Test.node[1].Network 	#received 	201
scalar Test.node[6].Network 	#received 	135
scalar Test.node[3].Network 	#received 	107
scalar Test.node[2].Network 	#received 	140
scalar Test.node[0].Network 	#received 	192
scalar Test.node[5].Network 	#received 	137
scalar Test.node[1].Network 	#received 	201
scalar Test.node[0].Network 	#received 	192
scalar Test.node[6].Network 	#received 	135
scalar Test.node[4].Network 	#received 	142
scalar Test.node[1].Network 	#received 	201
scalar Test.node[0].Network 	#received 	192
scalar Test.node[2].Network 	#received 	140
scalar Test.node[0].Network 	#received 	192
scalar Test.node[5].Network 	#received 	137
scalar Test.node[1].Network 	#received 	201
scalar Test.node[0].Network 	#received 	192
scalar Test.node[6].Network 	#received 	135
scalar Test.node[5].Network 	#received 	137
scalar Test.node[3].Network 	#received 	107
scalar Test.node[1].Network 	#received 	201
scalar Test.node[0].Network 	#received 	192
scalar Test.node[6].Network 	#received 	135
scalar Test.node[4].Network 	#received 	142
scalar Test.node[2].Network 	#received 	140
scalar Test.node[1].Network 	#received 	201
scalar Test.node[0].Network 	#received 	192
scalar Test.node[5].Network 	#received 	137
scalar Test.node[1].Network 	#received 	201
scalar Test.node[0].Network 	#received 	192
scalar Test.node[6].Network 	#received 	135
scalar Test.node[3].Network 	#received 	107
scalar Test.node[0].Network 	#received 	192
scalar Test.node[1].Network 	#received 	201
scalar Test.node[5].Network 	#received 	137
scalar Test.node[2].Network 	#received 	140
scalar Test.node[0].Network 	#received 	192
scalar Test.node[5].Network 	#received 	137
scalar Test.node[1].Network 	#received 	201
scalar Test.node[0].Network 	#received 	192
scalar Test.node[6].Network 	#received 	135
scalar Test.node[4].Network 	#received 	142
scalar Test.node[1].Network 	#received 	201
scalar Test.node[0].Network 	#received 	192
scalar Test.node[3].Network 	#received 	107
scalar Test.node[6].Network 	#received 	135
scalar Test.node[2].Network 	#received 	140
scalar Test.node[0].Network 	#received 	192
scalar Test.node[5].Network 	#received 	137
scalar Test.node[1].Network 	#received 	201
scalar Test.node[0].Network 	#received 	192
scalar Test.node[6].Network 	#received 	135
scalar Test.node[1].Network 	#received 	201
scalar Test.node[0].Network 	#received 	192
scalar Test.node[5].Network 	#received 	137
scalar Test.node[4].Network 	#received 	142
scalar Test.node[3].Network 	#received 	107
scalar Test.node[2].Network 	#received 	140
scalar Test.node[1].Network 	#received 	201
scalar Test.node[0].Network 	#received 	192
scalar Test.node[5].Network 	#received 	137
scalar Test.node[1].Network 	#received 	201
scalar Test.node[0].Network 	#received 	192
scalar Test.node[6].Network 	#received 	135
scalar Test.node[0].Network 	#received 	192
scalar Test.node[1].Network 	#received 	201
scalar Test.node[6].Network 	#received 	135
scalar Test.node[2].Network 	#received 	140
scalar Test.node[0].Network 	#received 	192
scalar Test.node[5].Network 	#received 	137
scalar Test.node[1].Network 	#received 	201
scalar Test.node[0].Network 	#received 	192
scalar Test.node[6].Network 	#received 	135
scalar Test.node[3].Network 	#received 	107
scalar Test.node[5].Network 	#received 	137
scalar Test.node[4].Network 	#received 	142
scalar Test.node[1].Network 	#received 	201
scalar Test.node[0].Network 	#received 	192
scalar Test.node[2].Network 	#received 	140
scalar Test.node[0].Network 	#received 	192
scalar Test.node[5].Network 	#received 	137
scalar Test.node[1].Network 	#received 	201
scalar Test.node[0].Network 	#received 	192
scalar Test.node[6].Network 	#received 	135
scalar Test.node[1].Network 	#received 	201
scalar Test.node[3].Network 	#received 	107
scalar Test.node[0].Network 	#received 	192
scalar Test.node[6].Network 	#received 	135
scalar Test.node[4].Network 	#received 	142
scalar Test.node[2].Network 	#received 	140
scalar Test.node[1].Network 	#received 	201
scalar Test.node[0].Network 	#received 	192
scalar Test.node[5].Network 	#received 	137
scalar Test.node[1].Network 	#received 	201
scalar Test.node[0].Network 	#received 	192
scalar Test.node[6].Network 	#received 	135
scalar Test.node[5].Network 	#received 	137
scalar Test.node[0].Network 	#received 	192
scalar Test.node[3].Network 	#received 	107
scalar Test.node[1].Network 	#received 	201
scalar Test.node[2].Network 	#received 	140
scalar Test.node[0].Network 	#received 	192
scalar Test.node[5].Network 	#received 	137
scalar Test.node[1].Network 	#received 	201
scalar Test.node[0].Network 	#received 	192
scalar Test.node[6].Network 	#received 	135
scalar Test.node[4].Network 	#received 	142
scalar Test.node[1].Network 	#received 	201
scalar Test.node[0].Network 	#received 	192
scalar Test.node[6].Network 	#received 	135
scalar Test.node[5].Network 	#received 	137
scalar Test.node[3].Network 	#received 	107
scalar Test.node[2].Network 	#received 	140
scalar Test.node[0].Network 	#received 	192
scalar Test.node[5].Network 	#received 	137
scalar Test.node[1].Network 	#received 	201
scalar Test.node[0].Network 	#received 	192
scalar Test.node[6].Network 	#received 	135
scalar Test.node[1].Network 	#received 	201
scalar Test.node[0].Network 	#received 	192
scalar Test.node[4].Network 	#received 	142
scalar Test.node[2].Network 	#received 	140
scalar Test.node[1].Network 	#received 	201
scalar Test.node[0].Network 	#received 	192
scalar Test.node[5].Network 	#received 	137
scalar Test.node[1].Network 	#received 	201
scalar Test.node[0].Network 	#received 	192
scalar Test.node[6].Network 	#received 	135
scalar Test.node[3].Network 	#received 	107
scalar Test.node[0].Network 	#received 	192
scalar Test.node[5].Network 	#received 	137
scalar Test.node[1].Network 	#received 	201
scalar Test.node[6].Network 	#received 	135
scalar Test.node[2].Network 	#received 	140
scalar Test.node[0].Network 	#received 	192
scalar Test.node[5].Network 	#received 	137
scalar Test.node[1].Network 	#received 	201
scalar Test.node[0].Network 	#received 	192
scalar Test.node[6].Network 	#received 	135
scalar Test.node[4].Network 	#received 	142
scalar Test.node[3].Network 	#received 	107
scalar Test.node[1].Network 	#received 	201
scalar Test.node[0].Network 	#received 	192
scalar Test.node[2].Network 	#received 	140
scalar Test.node[0].Network 	#received 	192
scalar Test.node[5].Network 	#received 	137
scalar Test.node[1].Network 	#received 	201
scalar Test.node[0].Network 	#received 	192
scalar Test.node[6].Network 	#received 	135
scalar Test.node[1].Network 	#received 	201
scalar Test.node[5].Network 	#received 	137
scalar Test.node[0].Network 	#received 	192
scalar Test.node[3].Network 	#received 	107
scalar Test.node[6].Network 	#received 	135
scalar Test.node[4].Network 	#received 	142
scalar Test.node[2].Network 	#received 	140
scalar Test.node[1].Network 	#received 	201
scalar Test.node[0].Network 	#received 	192
scalar Test.node[5].Network 	#received 	137
scalar Test.node[1].Network 	#received 	201
scalar Test.node[0].Network 	#received 	192
scalar Test.node[6].Network 	#received 	135
scalar Test.node[0].Network 	#received 	192
scalar Test.node[1].Network 	#received 	201
scalar Test.node[3].Network 	#received 	107
scalar Test.node[2].Network 	#received 	140
scalar Test.node[0].Network 	#received 	192
scalar Test.node[5].Network 	#received 	137
scalar Test.node[1].Network 	#received 	201
scalar Test.node[0].Network 	#received 	192
scalar Test.node[6].Network 	#received 	135
scalar Test.node[5].Network 	#received 	137
scalar Test.node[4].Network 	#received 	142
scalar Test.node[1].Network 	#received 	201
scalar Test.node[0].Network 	#received 	192
scalar Test.node[6].Network 	#received 	135
scalar Test.node[2].Network 	#received 	140
scalar Test.node[0].Network 	#received 	192
scalar Test.node[5].Network 	#received 	137
scalar Test.node[1].Network 	#received 	201
scalar Test.node[0].Network 	#received 	192
scalar Test.node[6].Network 	#received 	135
scalar Test.node[3].Network 	#received 	107
scalar Test.node[1].Network 	#received 	201
scalar Test.node[0].Network 	#received 	192
scalar Test.node[5].Network 	#received 	137
scalar Test.node[4].Network 	#received 	142
scalar Test.node[2].Network 	#received 	140
scalar Test.node[1].Network 	#received 	201
scalar Test.node[0].Network 	#received 	192
scalar Test.node[5].Network 	#received 	137
scalar Test.node[1].Network 	#received 	201
scalar Test.node[0].Network 	#received 	192
scalar Test.node[6].Network 	#received 	135
scalar Test.node[3].Network 	#received 	107
scalar Test.node[0].Network 	#received 	192
scalar Test.node[1].Network 	#received 	201
scalar Test.node[6].Network 	#received 	135
scalar Test.node[2].Network 	#received 	140
scalar Test.node[0].Network 	#received 	192
scalar Test.node[5].Network 	#received 	137
scalar Test.node[1].Network 	#received 	201
scalar Test.node[0].Network 	#received 	192
scalar Test.node[6].Network 	#received 	135
scalar Test.node[4].Network 	#received 	142
scalar Test.node[1].Network 	#received 	201
scalar Test.node[0].Network 	#received 	192
scalar Test.node[5].Network 	#received 	137
scalar Test.node[3].Network 	#received 	107
scalar Test.node[2].Network 	#received 	140
scalar Test.node[0].Network 	#received 	192
scalar Test.node[5].Network 	#received 	137
scalar Test.node[1].Network 	#received 	201
scalar Test.node[0].Network 	#received 	192
scalar Test.node[6].Network 	#received 	135
scalar Test.node[1].Network 	#received 	201
scalar Test.node[0].Network 	#received 	192
scalar Test.node[6].Network 	#received 	135
scalar Test.node[4].Network 	#received 	142
scalar Test.node[3].Network 	#received 	107
scalar Test.node[2].Network 	#received 	140
scalar Test.node[1].Network 	#received 	201
scalar Test.node[0].Network 	#received 	192
scalar Test.node[5].Network 	#received 	137
scalar Test.node[1].Network 	#received 	201
scalar Test.node[0].Network 	#received 	192
scalar Test.node[6].Network 	#received 	135
scalar Test.node[5].Network 	#received 	137
scalar Test.node[0].Network 	#received 	192
scalar Test.node[1].Network 	#received 	201
scalar Test.node[2].Network 	#received 	140
scalar Test.node[0].Network 	#received 	192
scalar Test.node[5].Network 	#received 	137
scalar Test.node[1].Network 	#received 	201
scalar Test.node[0].Network 	#received 	192
scalar Test.node[6].Network 	#received 	135
scalar Test.node[3].Network 	#received 	107
scalar Test.node[4].Network 	#received 	142
scalar Test.node[1].Network 	#received 	201
scalar Test.node[0].Network 	#received 	192
scalar Test.node[6].Network 	#received 	135
scalar Test.node[2].Network 	#received 	140
scalar Test.node[0].Network 	#received 	192
scalar Test.node[5].Network 	#received 	137
scalar Test.node[1].Network 	#received 	201
scalar Test.node[0].Network 	#received 	192
scalar Test.node[6].Network 	#received 	135
scalar Test.node[5].Network 	#received 	137
scalar Test.node[1].Network 	#received 	201
scalar Test.node[3].Network 	#received 	107
scalar Test.node[0].Network 	#received 	192
scalar Test.node[4].Network 	#received 	142
scalar Test.node[2].Network 	#received 	140
scalar Test.node[1].Network 	#received 	201
scalar Test.node[0].Network 	#received 	192
scalar Test.node[5].Network 	#received 	137
scalar Test.node[1].Network 	#received 	201
scalar Test.node[0].Network 	#received 	192
scalar Test.node[6].Network 	#received 	135
scalar Test.node[0].Network 	#received 	192
scalar Test.node[3].Network 	#received 	107
scalar Test.node[1].Network 	#received 	201
scalar Test.node[6].Network 	#received 	135
scalar Test.node[5].Network 	#received 	137
scalar Test.node[2].Network 	#received 	140
scalar Test.node[0].Network 	#received 	192
scalar Test.node[5].Network 	#received 	137
scalar Test.node[1].Network 	#received 	201
scalar Test.node[0].Network 	#received 	192
scalar Test.node[6].Network 	#received 	135
scalar Test.node[4].Network 	#received 	142
scalar Test.node[1].Network 	#received 	201
scalar Test.node[0].Network 	#received 	192
scalar Test.node[3].Network 	#received 	107
scalar Test.node[2].Network 	#received 	140
scalar Test.node[0].Network 	#received 	192
scalar Test.node[5].Network 	#received 	137
scalar Test.node[1].Network 	#received 	201
scalar Test.node[0].Network 	#received 	192
scalar Test.node[6].Network 	#received 	135
scalar Test.node[1].Network 	#received 	201
scalar Test.node[0].Network 	#received 	192
scalar Test.node[5].Network 	#received 	137
scalar Test.node[6].Network 	#received 	135
scalar Test.node[4].Network 	#received 	142
scalar Test.node[2].Network 	#received 	140
scalar Test.node[1].Network 	#received 	201
scalar Test.node[0].Network 	#received 	192
scalar Test.node[5].Network 	#received 	137
scalar Test.node[1].Network 	#received 	201
scalar Test.node[0].Network 	#received 	192
scalar Test.node[6].Network 	#received 	135
scalar Test.node[3].Network 	#received 	107
scalar Test.node[0].Network 	#received 	192
scalar Test.node[1].Network 	#received 	201
scalar Test.node[2].Network 	#received 	140
scalar Test.node[0].Network 	#received 	192
scalar Test.node[5].Network 	#received 	137
scalar Test.node[1].Network 	#received 	201
scalar Test.node[0].Network 	#received 	192
scalar Test.node[6].Network 	#received 	135
scalar Test.node[5].Network 	#received 	137
scalar Test.node[4].Network 	#received 	142
scalar Test.node[3].Network 	#received 	107
scalar Test.node[1].Network 	#received 	201
scalar Test.node[0].Network 	#received 	192
scalar Test.node[6].Network 	#received 	135
scalar Test.node[2].Network 	#received 	140
scalar Test.node[0].Network 	#received 	192
scalar Test.node[5].Network 	#received 	137
scalar Test.node[1].Network 	#received 	201
scalar Test.node[0].Network 	#received 	192
scalar Test.node[6].Network 	#received 	135
scalar Test.node[1].Network 	#received 	201
scalar Test.node[0].Network 	#received 	192
scalar Test.node[3].Network 	#received 	107
scalar Test.node[4].Network 	#received 	142
scalar Test.node[2].Network 	#received 	140
scalar Test.node[1].Network 	#received 	201
scalar Test.node[0].Network 	#received 	192
scalar Test.node[5].Network 	#received 	137
scalar Test.node[1].Network 	#received 	201
scalar Test.node[0].Network 	#received 	192
scalar Test.node[6].Network 	#received 	135
scalar Test.node[5].Network 	#received 	137
scalar Test.node[0].Network 	#received 	192
scalar Test.node[1].Network 	#received 	201
scalar Test.node[6].Network 	#received 	135
scalar Test.node[3].Network 	#received 	107
scalar Test.node[2].Network 	#received 	140
scalar Test.node[0].Network 	#received 	192
scalar Test.node[5].Network 	#received 	137
scalar Test.node[1].Network 	#received 	201
scalar Test.node[0].Network 	#received 	192
scalar Test.node[6].Network 	#received 	135
scalar Test.node[4].Network 	#received 	142
scalar Test.node[1].Network 	#received 	201
scalar Test.node[0].Network 	#received 	192
scalar Test.node[5].Network 	#received 	137
scalar Test.node[2].Network 	#received 	140
scalar Test.node[0].Network 	#received 	192
scalar Test.node[5].Network 	#received 	137
scalar Test.node[1].Network 	#received 	201
scalar Test.node[0].Network 	#received 	192
scalar Test.node[6].Network 	#received 	135
scalar Test.node[3].Network 	#received 	107
scalar Test.node[1].Network 	#received 	201
scalar Test.node[0].Network 	#received 	192
scalar Test.node[6].Network 	#received 	135
scalar Test.node[4].Network 	#received 	142
scalar Test.node[2].Network 	#received 	140
scalar Test.node[1].Network 	#received 	201
scalar Test.node[0].Network 	#received 	192
scalar Test.node[5].Network 	#received 	137
scalar Test.node[1].Network 	#received 	201
scalar Test.node[0].Network 	#received 	192
scalar Test.node[6].Network 	#received 	135
scalar Test.node[3].Network 	#received 	107
scalar Test.node[0].Network 	#received 	192
scalar Test.node[5].Network 	#received 	137
scalar Test.node[1].Network 	#received 	201
scalar Test.node[2].Network 	#received 	140
scalar Test.node[0].Network 	#received 	192
scalar Test.node[5].Network 	#received 	137
scalar Test.node[1].Network 	#received 	201
scalar Test.node[0].Network 	#received 	192
scalar Test.node[6].Network 	#received 	135
scalar Test.node[4].Network 	#received 	142
scalar Test.node[1].Network 	#received 	201
scalar Test.node[0].Network 	#received 	192
scalar Test.node[3].Network 	#received 	107
scalar Test.node[6].Network 	#received 	135
scalar Test.node[2].Network 	#received 	140
scalar Test.node[0].Network 	#received 	192
[...]
bin	164.53258930494	3
bin	230.34541764623	0
bin	296.15824598752	0
bin	361.97107432882	0
bin	427.78390267011	0
bin	493.5967310114	3
bin	559.4095593527	0
bin	625.22238769399	3
bin	691.03521603528	1
bin	756.84804437658	0
bin	822.66087271787	0
bin	888.47370105916	0
bin	954.28652940045	556
bin	1020.0993577417	0
bin	1085.912186083	0
bin	1151.7250144243	0
bin	1217.5378427656	0
bin	1283.3506711069	0
bin	1349.1634994482	0
bin	1414.9763277895	0
bin	1480.7891561308	0
scalar Test.node[3].iWirelessNic.mac 	nbTxFrames 	57
scalar Test.node[3].iWirelessNic.mac 	nbRxFrames 	89
scalar Test.node[3].iWirelessNic.mac 	nbDroppedFrames 	51
scalar Test.node[3].iWirelessNic.mac 	nbMissedAcks 	0
scalar Test.node[3].iWirelessNic.mac 	nbRecvdAcks 	0
scalar Test.node[3].iWirelessNic.mac 	nbTxAcks 	0
scalar Test.node[3].iWirelessNic.mac 	nbDuplicates 	0
scalar Test.node[3].iWirelessNic.mac 	meanBackoff 	0.0032290909090909
scalar Test.node[3].iWirelessNic.mac 	nbBackoffs 	363
scalar Test.node[3].iWirelessNic.mac 	backoffDurations 	1.17216
scalar Test.node[3].iWirelessNic.radio 	transmissionState:count 	228
attr interpolationmode  sample-hold
attr source  transmissionStateChanged
attr title  "Radio transmission state, count"
scalar Test.node[3].iWirelessNic.radio 	receptionState:count 	3686
attr interpolationmode  sample-hold
attr source  receptionStateChanged
attr title  "Radio reception state, count"
scalar Test.node[3].iWirelessNic.radio 	radioMode:count 	116
attr interpolationmode  sample-hold
attr source  radioModeChanged
attr title  "Radio mode, count"
statistic Test.node[3].iWirelessNic.radio 	symbolErrorRate:histogram
field count 0
field mean -nan
field stddev -nan
field sum 0
field sqrsum 0
field min -nan
field max -nan
attr source  symbolErrorRate
attr title  "Symbol error rate, histogram"
bin	-INF	0
bin	-0.5	0
bin	-0.46666666666667	0
bin	-0.43333333333333	0
bin	-0.4	0
bin	-0.36666666666667	0
bin	-0.33333333333333	0
bin	-0.3	0
bin	-0.26666666666667	0
bin	-0.23333333333333	0
bin	-0.2	0
bin	-0.16666666666667	0
bin	-0.13333333333333	0
bin	-0.1	0
bin	-0.066666666666667	0
bin	-0.033333333333333	0
bin	0	0
bin	0.033333333333333	0
bin	0.066666666666667	0
bin	0.1	0
bin	0.13333333333333	0
bin	0.16666666666667	0
bin	0.2	0
bin	0.23333333333333	0
bin	0.26666666666667	0
bin	0.3	0
bin	0.33333333333333	0
bin	0.36666666666667	0
bin	0.4	0
bin	0.43333333333333	0
bin	0.46666666666667	0
bin	0.5	0
statistic Test.node[3].iWirelessNic.radio 	bitErrorRate:histogram
field count 1778
field mean 0.0049146194116427
field stddev 0.027516321625806
field sum 8.7381933139007
field sqrsum 1.3883968119661
field min 3.5766438543913e-56
field max 0.43178810174608
attr source  bitErrorRate
attr title  "Bit error rate, histogram"
bin	-INF	0
bin	-0.21336406658968	0
bin	-0.18491552437772	0
bin	-0.15646698216577	0
bin	-0.12801843995381	0
bin	-0.099569897741851	0
bin	-0.071121355529893	0
bin	-0.042672813317936	0
bin	-0.014224271105979	1756
bin	0.014224271105979	5
bin	0.042672813317936	0
bin	0.071121355529893	5
bin	0.099569897741851	2
bin	0.12801843995381	1
bin	0.15646698216577	0
bin	0.18491552437772	2
bin	0.21336406658968	0
bin	0.24181260880164	0
bin	0.2702611510136	0
bin	0.29870969322555	0
bin	0.32715823543751	0
bin	0.35560677764947	2
bin	0.38405531986142	0
bin	0.41250386207338	5
bin	0.44095240428534	0
bin	0.4694009464973	0
bin	0.49784948870925	0
bin	0.52629803092121	0
bin	0.55474657313317	0
bin	0.58319511534513	0
bin	0.61164365755708	0
bin	0.64009219976904	0
statistic Test.node[3].iWirelessNic.radio 	packetErrorRate:histogram
field count 1778
field mean 0.51311013488943
field stddev 0.41400852495724
field sum 912.3098198334
field sqrsum 772.6986500918
field min 0
field max 1
attr source  packetErrorRate
attr title  "Packet error rate, histogram"
bin	-INF	0
bin	-0.5	0
bin	-0.43333333333333	0
bin	-0.36666666666667	0
bin	-0.3	0
bin	-0.23333333333333	0
bin	-0.16666666666667	0
bin	-0.1	0
bin	-0.033333333333333	614
bin	0.033333333333333	0
bin	0.1	0
bin	0.16666666666667	0
bin	0.23333333333333	0
bin	0.3	0
bin	0.36666666666667	1
bin	0.43333333333333	0
bin	0.5	564
bin	0.56666666666667	0
bin	0.63333333333333	0
bin	0.7	0
bin	0.76666666666667	0
bin	0.83333333333333	0
bin	0.9	0
bin	0.96666666666667	599
bin	1.0333333333333	0
bin	1.1	0
bin	1.1666666666667	0
bin	1.2333333333333	0
bin	1.3	0
bin	1.3666666666667	0
bin	1.4333333333333	0
bin	1.5	0
statistic Test.node[3].iWirelessNic.radio 	minSNIR:histogram
field count 1778
field mean 1.6376626769371
field stddev 1.8796899213212
field sum 2911.7642395941
field sqrsum 11047.044793186
field min 0.039461394185369
field max 12.905663467891
attr source  minSNIR
attr title  "Min SNIR, histogram"
bin	-INF	0
bin	-6.3894768114507	0
bin	-5.5319150212577	0
bin	-4.6743532310647	0
bin	-3.8167914408717	0
bin	-2.9592296506787	0
bin	-2.1016678604858	0
bin	-1.2441060702928	0
bin	-0.38654428009979	22
bin	0.4710175100932	1142
bin	1.3285793002862	4
bin	2.1861410904792	566
bin	3.0437028806722	1
bin	3.9012646708651	0
bin	4.7588264610581	0
bin	5.6163882512511	1
bin	6.4739500414441	0
bin	7.3315118316371	4
bin	8.1890736218301	0
bin	9.0466354120231	3
bin	9.904197202216	0
bin	10.761758992409	0
bin	11.619320782602	0
bin	12.476882572795	35
bin	13.334444362988	0
bin	14.192006153181	0
bin	15.049567943374	0
bin	15.907129733567	0
bin	16.76469152376	0
bin	17.622253313953	0
bin	18.479815104146	0
bin	19.337376894339	0
scalar Test.node[4].iWirelessNic.mac 	nbTxFrames 	59
scalar Test.node[4].iWirelessNic.mac 	nbRxFrames 	92
scalar Test.node[4].iWirelessNic.mac 	nbDroppedFrames 	85
scalar Test.node[4].iWirelessNic.mac 	nbMissedAcks 	0
scalar Test.node[4].iWirelessNic.mac 	nbRecvdAcks 	0
scalar Test.node[4].iWirelessNic.mac 	nbTxAcks 	0
scalar Test.node[4].iWirelessNic.mac 	nbDuplicates 	0
scalar Test.node[4].iWirelessNic.mac 	meanBackoff 	0.0033434482758621
scalar Test.node[4].iWirelessNic.mac 	nbBackoffs 	551
scalar Test.node[4].iWirelessNic.mac 	backoffDurations 	1.84224
scalar Test.node[4].iWirelessNic.radio 	transmissionState:count 	236
attr interpolationmode  sample-hold
attr source  transmissionStateChanged
attr title  "Radio transmission state, count"
scalar Test.node[4].iWirelessNic.radio 	receptionState:count 	4816
attr interpolationmode  sample-hold
attr source  receptionStateChanged
attr title  "Radio reception state, count"
scalar Test.node[4].iWirelessNic.radio 	radioMode:count 	120
attr interpolationmode  sample-hold
attr source  radioModeChanged
attr title  "Radio mode, count"
statistic Test.node[4].iWirelessNic.radio 	symbolErrorRate:histogram
field count 0
field mean -nan
field stddev -nan
field sum 0
field sqrsum 0
field min -nan
field max -nan
attr source  symbolErrorRate
attr title  "Symbol error rate, histogram"
bin	-INF	0
bin	-0.5	0
bin	-0.46666666666667	0
bin	-0.43333333333333	0
bin	-0.4	0
bin	-0.36666666666667	0
bin	-0.33333333333333	0
bin	-0.3	0
bin	-0.26666666666667	0
bin	-0.23333333333333	0
bin	-0.2	0
bin	-0.16666666666667	0
bin	-0.13333333333333	0
bin	-0.1	0
bin	-0.066666666666667	0
bin	-0.033333333333333	0
bin	0	0
bin	0.033333333333333	0
bin	0.066666666666667	0
bin	0.1	0
bin	0.13333333333333	0
bin	0.16666666666667	0
bin	0.2	0
bin	0.23333333333333	0
bin	0.26666666666667	0
bin	0.3	0
bin	0.33333333333333	0
bin	0.36666666666667	0
bin	0.4	0
bin	0.43333333333333	0
bin	0.46666666666667	0
bin	0.5	0
statistic Test.node[4].iWirelessNic.radio 	bitErrorRate:histogram
field count 2339
field mean 0.0071777592151625
field stddev 0.034898309211143
field sum 16.788778804265
field sqrsum 2.967937274566
field min 3.5766438543913e-56
field max 0.43985119908254
attr source  bitErrorRate
attr title  "Bit error rate, histogram"
bin	-INF	0
bin	-0.21827249038455	0
bin	-0.18916949166661	0
bin	-0.16006649294867	0
bin	-0.13096349423073	0
bin	-0.10186049551279	0
bin	-0.07275749679485	0
bin	-0.04365449807691	0
bin	-0.01455149935897	1760
bin	0.01455149935897	557
bin	0.04365449807691	1
bin	0.07275749679485	3
bin	0.10186049551279	0
bin	0.13096349423073	0
bin	0.16006649294867	3
bin	0.18916949166661	0
bin	0.21827249038455	1
bin	0.24737548910249	0
bin	0.27647848782043	0
bin	0.30558148653837	0
bin	0.33468448525631	0
bin	0.36378748397425	0
bin	0.39289048269219	0
bin	0.42199348141013	14
bin	0.45109648012807	0
bin	0.48019947884601	0
bin	0.50930247756395	0
bin	0.53840547628189	0
bin	0.56750847499983	0
bin	0.59661147371777	0
bin	0.62571447243571	0
bin	0.65481747115365	0
statistic Test.node[4].iWirelessNic.radio 	packetErrorRate:histogram
field count 2339
field mean 0.48788049141109
field stddev 0.49960588864383
field sum 1141.1524694105
field sqrsum 1140.3249583472
field min 0
field max 1
attr source  packetErrorRate
attr title  "Packet error rate, histogram"
bin	-INF	0
bin	-0.5	0
bin	-0.43333333333333	0
bin	-0.36666666666667	0
bin	-0.3	0
bin	-0.23333333333333	0
bin	-0.16666666666667	0
bin	-0.1	0
bin	-0.033333333333333	1196
bin	0.033333333333333	0
bin	0.1	0
bin	0.16666666666667	0
bin	0.23333333333333	0
bin	0.3	2
bin	0.36666666666667	0
bin	0.43333333333333	0
bin	0.5	0
bin	0.56666666666667	1
bin	0.63333333333333	0
bin	0.7	0
bin	0.76666666666667	0
bin	0.83333333333333	0
bin	0.9	0
bin	0.96666666666667	1140
bin	1.0333333333333	0
bin	1.1	0
bin	1.1666666666667	0
bin	1.2333333333333	0
bin	1.3	0
bin	1.3666666666667	0
bin	1.4333333333333	0
bin	1.5	0
statistic Test.node[4].iWirelessNic.radio 	minSNIR:histogram
field count 2339
field mean 2.0509510820371
field stddev 1.6230453373529
field sum 4797.1745808848
field sqrsum 15997.708076073
field min 0.035017491273177
field max 12.905663467891
attr source  minSNIR
attr title  "Min SNIR, histogram"
bin	-INF	0
bin	-6.3975668068575	0
bin	-5.5396454613131	0
bin	-4.6817241157687	0
bin	-3.8238027702243	0
bin	-2.9658814246799	0
bin	-2.1079600791355	0
bin	-1.2500387335911	0
bin	-0.39211738804668	22
bin	0.46580395749772	1121
bin	1.3237253030421	7
bin	2.1816466485865	591
bin	3.0395679941309	8
bin	3.8974893396753	568
bin	4.7554106852197	0
bin	5.6133320307641	0
bin	6.4712533763085	0
bin	7.3291747218529	1
bin	8.1870960673973	13
bin	9.0450174129417	0
bin	9.9029387584861	0
bin	10.76086010403	0
bin	11.618781449575	0
bin	12.476702795119	8
bin	13.334624140664	0
bin	14.192545486208	0
bin	15.050466831752	0
bin	15.908388177297	0
bin	16.766309522841	0
bin	17.624230868386	0
bin	18.48215221393	0
bin	19.340073559474	0
scalar Test.node[5].iWirelessNic.mac 	nbTxFrames 	577
scalar Test.node[5].iWirelessNic.mac 	nbRxFrames 	626
scalar Test.node[5].iWirelessNic.mac 	nbDroppedFrames 	89
scalar Test.node[5].iWirelessNic.mac 	nbMissedAcks 	0
scalar Test.node[5].iWirelessNic.mac 	nbRecvdAcks 	0
scalar Test.node[5].iWirelessNic.mac 	nbTxAcks 	0
scalar Test.node[5].iWirelessNic.mac 	nbDuplicates 	0
scalar Test.node[5].iWirelessNic.mac 	meanBackoff 	0.0021782878645343
scalar Test.node[5].iWirelessNic.mac 	nbBackoffs 	1063
scalar Test.node[5].iWirelessNic.mac 	backoffDurations 	2.31552
scalar Test.node[5].iWirelessNic.radio 	transmissionState:count 	2308
attr interpolationmode  sample-hold
attr source  transmissionStateChanged
attr title  "Radio transmission state, count"
scalar Test.node[5].iWirelessNic.radio 	receptionState:count 	4829
attr interpolationmode  sample-hold
attr source  receptionStateChanged
attr title  "Radio reception state, count"
scalar Test.node[5].iWirelessNic.radio 	radioMode:count 	1156
attr interpolationmode  sample-hold
attr source  radioModeChanged
attr title  "Radio mode, count"
statistic Test.node[5].iWirelessNic.radio 	symbolErrorRate:histogram
field count 0
field mean -nan
field stddev -nan
field sum 0
field sqrsum 0
field min -nan
field max -nan
attr source  symbolErrorRate
attr title  "Symbol error rate, histogram"
bin	-INF	0
bin	-0.5	0
bin	-0.46666666666667	0
bin	-0.43333333333333	0
bin	-0.4	0
bin	-0.36666666666667	0
bin	-0.33333333333333	0
bin	-0.3	0
bin	-0.26666666666667	0
bin	-0.23333333333333	0
bin	-0.2	0
bin	-0.16666666666667	0
bin	-0.13333333333333	0
bin	-0.1	0
bin	-0.066666666666667	0
bin	-0.033333333333333	0
bin	0	0
bin	0.033333333333333	0
bin	0.066666666666667	0
bin	0.1	0
bin	0.13333333333333	0
bin	0.16666666666667	0
bin	0.2	0
bin	0.23333333333333	0
bin	0.26666666666667	0
bin	0.3	0
bin	0.33333333333333	0
bin	0.36666666666667	0
bin	0.4	0
bin	0.43333333333333	0
bin	0.46666666666667	0
bin	0.5	0
statistic Test.node[5].iWirelessNic.radio 	bitErrorRate:histogram
field count 1822
field mean 0.0065675021801007
field stddev 0.052879009381437
field sum 11.965988972144
field sqrsum 5.1704479806497
field min 0
field max 0.49905493542143
attr source  bitErrorRate
attr title  "Bit error rate, histogram"
bin	-INF	0
bin	-0.24952746771071	0
bin	-0.21625713868262	0
bin	-0.18298680965452	0
bin	-0.14971648062643	0
bin	-0.11644615159833	0
bin	-0.083175822570238	0
bin	-0.049905493542143	0
bin	-0.016635164514048	1785
bin	0.016635164514048	3
bin	0.049905493542143	10
bin	0.083175822570238	0
bin	0.11644615159833	0
bin	0.14971648062643	0
bin	0.18298680965452	0
bin	0.21625713868262	0
bin	0.24952746771071	0
bin	0.28279779673881	0
bin	0.3160681257669	0
bin	0.349338454795	3
bin	0.38260878382309	4
bin	0.41587911285119	2
bin	0.44914944187929	0
bin	0.48241977090738	15
bin	0.51569009993548	0
bin	0.54896042896357	0
bin	0.58223075799167	0
bin	0.61550108701976	0
bin	0.64877141604786	0
bin	0.68204174507595	0
bin	0.71531207410405	0
bin	0.74858240313214	0
statistic Test.node[5].iWirelessNic.radio 	packetErrorRate:histogram
field count 1822
field mean 0.057088482922845
field stddev 0.23204605239504
field sum 104.01521588542
field sqrsum 103.99049043269
field min 0
field max 1
attr source  packetErrorRate
attr title  "Packet error rate, histogram"
bin	-INF	0
bin	-0.5	0
bin	-0.43333333333333	0
bin	-0.36666666666667	0
bin	-0.3	0
bin	-0.23333333333333	0
bin	-0.16666666666667	0
bin	-0.1	0
bin	-0.033333333333333	1718
bin	0.033333333333333	0
bin	0.1	0
bin	0.16666666666667	0
bin	0.23333333333333	0
bin	0.3	0
bin	0.36666666666667	0
bin	0.43333333333333	0
bin	0.5	0
bin	0.56666666666667	0
bin	0.63333333333333	0
bin	0.7	0
bin	0.76666666666667	0
bin	0.83333333333333	0
bin	0.9	0
bin	0.96666666666667	104
bin	1.0333333333333	0
bin	1.1	0
bin	1.1666666666667	0
bin	1.2333333333333	0
bin	1.3	0
bin	1.3666666666667	0
bin	1.4333333333333	0
bin	1.5	0
statistic Test.node[5].iWirelessNic.radio 	minSNIR:histogram
field count 1822
field mean 312.77114716731
field stddev 449.68328824328
field sum 569869.03013884
field sqrsum 546472214.05139
field min 0.00059434562651767
field max 987.1929435711
attr source  minSNIR
attr title  "Min SNIR, histogram"
bin	-INF	0
bin	-493.59558026711	0
bin	-427.78275698541	0
bin	-361.96993370371	0
bin	-296.15711042202	0
bin	-230.34428714032	0
bin	-164.53146385862	0
bin	-98.718640576921	0
bin	-32.905817295223	1251
bin	32.907005986476	0
bin	98.719829268174	0
bin	164.53265254987	0
bin	230.34547583157	0
bin	296.15829911327	0
bin	361.97112239497	0
bin	427.78394567667	0
bin	493.59676895836	0
bin	559.40959224006	17
bin	625.22241552176	0
bin	691.03523880346	0
bin	756.84806208516	0
bin	822.66088536685	0
bin	888.47370864855	0
bin	954.28653193025	554
bin	1020.0993552119	0
bin	1085.9121784936	0
bin	1151.7250017753	0
bin	1217.537825057	0
bin	1283.3506483387	0
bin	1349.1634716204	0
bin	1414.9762949021	0
bin	1480.7891181838	0
scalar Test.node[6].iWirelessNic.mac 	nbTxFrames 	41
scalar Test.node[6].iWirelessNic.mac 	nbRxFrames 	622
scalar Test.node[6].iWirelessNic.mac 	nbDroppedFrames 	96
scalar Test.node[6].iWirelessNic.mac 	nbMissedAcks 	0
scalar Test.node[6].iWirelessNic.mac 	nbRecvdAcks 	0
scalar Test.node[6].iWirelessNic.mac 	nbTxAcks 	0
scalar Test.node[6].iWirelessNic.mac 	nbDuplicates 	0
scalar Test.node[6].iWirelessNic.mac 	meanBackoff 	0.0034840579710145
scalar Test.node[6].iWirelessNic.mac 	nbBackoffs 	552
scalar Test.node[6].iWirelessNic.mac 	backoffDurations 	1.9232
scalar Test.node[6].iWirelessNic.radio 	transmissionState:count 	164
attr interpolationmode  sample-hold
attr source  transmissionStateChanged
attr title  "Radio transmission state, count"
scalar Test.node[6].iWirelessNic.radio 	receptionState:count 	4811
attr interpolationmode  sample-hold
attr source  receptionStateChanged
attr title  "Radio reception state, count"
scalar Test.node[6].iWirelessNic.radio 	radioMode:count 	84
attr interpolationmode  sample-hold
attr source  radioModeChanged
attr title  "Radio mode, count"
statistic Test.node[6].iWirelessNic.radio 	symbolErrorRate:histogram
field count 0
field mean -nan
field stddev -nan
field sum 0
field sqrsum 0
field min -nan
field max -nan
attr source  symbolErrorRate
attr title  "Symbol error rate, histogram"
bin	-INF	0
bin	-0.5	0
bin	-0.46666666666667	0
bin	-0.43333333333333	0
bin	-0.4	0
bin	-0.36666666666667	0
bin	-0.33333333333333	0
bin	-0.3	0
bin	-0.26666666666667	0
bin	-0.23333333333333	0
bin	-0.2	0
bin	-0.16666666666667	0
bin	-0.13333333333333	0
bin	-0.1	0
bin	-0.066666666666667	0
bin	-0.033333333333333	0
bin	0	0
bin	0.033333333333333	0
bin	0.066666666666667	0
bin	0.1	0
bin	0.13333333333333	0
bin	0.16666666666667	0
bin	0.2	0
bin	0.23333333333333	0
bin	0.26666666666667	0
bin	0.3	0
bin	0.33333333333333	0
bin	0.36666666666667	0
bin	0.4	0
bin	0.43333333333333	0
bin	0.46666666666667	0
bin	0.5	0
statistic Test.node[6].iWirelessNic.radio 	bitErrorRate:histogram
field count 2357
field mean 0.0083104369174247
field stddev 0.023329609568139
field sum 19.58769981437
field sqrsum 1.4450840718747
field min 5.1622359391191e-21
field max 0.3750754691208
attr source  bitErrorRate
attr title  "Bit error rate, histogram"
bin	-INF	0
bin	-0.1574281968945	0
bin	-0.1364377706419	0
bin	-0.1154473443893	0
bin	-0.0944569181367	0
bin	-0.0734664918841	0
bin	-0.0524760656315	0
bin	-0.0314856393789	0
bin	-0.0104952131263	1755
bin	0.0104952131263	554
bin	0.0314856393789	16
bin	0.0524760656315	1
bin	0.0734664918841	13
bin	0.0944569181367	0
bin	0.1154473443893	4
bin	0.1364377706419	1
bin	0.1574281968945	0
bin	0.1784186231471	0
bin	0.1994090493997	0
bin	0.2203994756523	6
bin	0.2413899019049	0
bin	0.2623803281575	0
bin	0.2833707544101	2
bin	0.3043611806627	4
bin	0.3253516069153	0
bin	0.3463420331679	0
bin	0.3673324594205	1
bin	0.3883228856731	0
bin	0.4093133119257	0
bin	0.4303037381783	0
bin	0.4512941644309	0
bin	0.4722845906835	0
statistic Test.node[6].iWirelessNic.radio 	packetErrorRate:histogram
field count 2357
field mean 0.49901842198983
field stddev 0.49676123664659
field sum 1176.18642063
field sqrsum 1168.3328785975
field min 0
field max 1
attr source  packetErrorRate
attr title  "Packet error rate, histogram"
bin	-INF	0
bin	-0.5	0
bin	-0.43333333333333	0
bin	-0.36666666666667	0
bin	-0.3	0
bin	-0.23333333333333	0
bin	-0.16666666666667	0
bin	-0.1	0
bin	-0.033333333333333	1185
bin	0.033333333333333	3
bin	0.1	0
bin	0.16666666666667	0
bin	0.23333333333333	0
bin	0.3	0
bin	0.36666666666667	0
bin	0.43333333333333	0
bin	0.5	0
bin	0.56666666666667	0
bin	0.63333333333333	0
bin	0.7	0
bin	0.76666666666667	0
bin	0.83333333333333	3
bin	0.9	1
bin	0.96666666666667	1165
bin	1.0333333333333	0
bin	1.1	0
bin	1.1666666666667	0
bin	1.2333333333333	0
bin	1.3	0
bin	1.3666666666667	0
bin	1.4333333333333	0
bin	1.5	0
statistic Test.node[6].iWirelessNic.radio 	minSNIR:histogram
field count 2357
field mean 1.825617960544
field stddev 1.7412409240548
field sum 4302.9815330022
field sqrsum 14998.803785939
field min 0.070381541916152
field max 4.8099210999277
attr source  minSNIR
attr title  "Min SNIR, histogram"
bin	-INF	0
bin	-2.2487306046479	0
bin	-1.9350127511113	0
bin	-1.6212948975746	0
bin	-1.3075770440379	0
bin	-0.99385919050116	0
bin	-0.68014133696447	0
bin	-0.36642348342777	0
bin	-0.052705629891073	18
bin	0.26101222364562	584
bin	0.57473007718232	567
bin	0.88844793071902	2
bin	1.2021657842557	570
bin	1.5158836377924	0
bin	1.8296014913291	7
bin	2.1433193448658	0
bin	2.4570371984025	0
bin	2.7707550519392	41
bin	3.0844729054759	1
bin	3.3981907590126	0
bin	3.7119086125493	0
bin	4.025626466086	0
bin	4.3393443196227	0
bin	4.6530621731594	567
bin	4.9667800266961	0
bin	5.2804978802328	0
bin	5.5942157337695	0
bin	5.9079335873062	0
bin	6.2216514408429	0
bin	6.5353692943796	0
bin	6.8490871479163	0
bin	7.162805001453	0
