version 2
run General-0-20170616-17:13:45-12442
attr configname General
attr datetime 20170616-17:13:45
attr experiment General
attr inifile omnetpp.ini
attr iterationvars ""
attr iterationvars2 $repetition=0
attr measurement ""
attr network Test
attr processid 12442
attr repetition 0
attr replication #0
attr resultdir results
attr runnumber 0
attr seedset 0
param **.app.StartTime 0s
param **.iWirelessNic.mac.useMACAcks false
param **.mobility.constraintAreaMaxX 200m
param **.mobility.constraintAreaMaxY 200m
param **.mobility.constraintAreaMaxZ 0m
param **.mobility.constraintAreaMinX 0m
param **.mobility.constraintAreaMinY 0m
param **.mobility.constraintAreaMinZ 0m
param **.node[*].Network.Dest 6
param **.node[*].mobility.initialX uniform(20m,200m)
param **.node[*].mobility.initialY uniform(20m,200m)
param **.node[0].Network.Id 0
param **.node[0].app.Period 10s
param **.node[1].Network.Id 1
param **.node[1].app.Period 15s
param **.node[2].Network.Id 2
param **.node[2].app.Period 20s
param **.node[3].Network.Id 3
param **.node[3].app.Period 25s
param **.node[4].Network.Id 4
param **.node[4].app.Period 30s
param **.node[5].Network.Id 5
param **.node[5].app.Period 35s
param **.node[6].Network.Id 6
param **.node[6].app.Period 40s
param **.numNodes 7

vector 7  Test.node[0].iWirelessNic.radio  radioMode:vector  ETV
attr interpolationmode  sample-hold
attr source  radioModeChanged
attr title  "Radio mode, vector"
vector 10  Test.node[1].iWirelessNic.radio  radioMode:vector  ETV
attr interpolationmode  sample-hold
attr source  radioModeChanged
attr title  "Radio mode, vector"
vector 13  Test.node[2].iWirelessNic.radio  radioMode:vector  ETV
attr interpolationmode  sample-hold
attr source  radioModeChanged
attr title  "Radio mode, vector"
vector 16  Test.node[3].iWirelessNic.radio  radioMode:vector  ETV
attr interpolationmode  sample-hold
attr source  radioModeChanged
attr title  "Radio mode, vector"
vector 19  Test.node[4].iWirelessNic.radio  radioMode:vector  ETV
attr interpolationmode  sample-hold
attr source  radioModeChanged
attr title  "Radio mode, vector"
vector 22  Test.node[5].iWirelessNic.radio  radioMode:vector  ETV
attr interpolationmode  sample-hold
attr source  radioModeChanged
attr title  "Radio mode, vector"
vector 25  Test.node[6].iWirelessNic.radio  radioMode:vector  ETV
attr interpolationmode  sample-hold
attr source  radioModeChanged
attr title  "Radio mode, vector"
vector 8  Test.node[0].iWirelessNic.radio  receptionState:vector  ETV
attr interpolationmode  sample-hold
attr source  receptionStateChanged
attr title  "Radio reception state, vector"
vector 11  Test.node[1].iWirelessNic.radio  receptionState:vector  ETV
attr interpolationmode  sample-hold
attr source  receptionStateChanged
attr title  "Radio reception state, vector"
vector 14  Test.node[2].iWirelessNic.radio  receptionState:vector  ETV
attr interpolationmode  sample-hold
attr source  receptionStateChanged
attr title  "Radio reception state, vector"
vector 17  Test.node[3].iWirelessNic.radio  receptionState:vector  ETV
attr interpolationmode  sample-hold
attr source  receptionStateChanged
attr title  "Radio reception state, vector"
vector 20  Test.node[4].iWirelessNic.radio  receptionState:vector  ETV
attr interpolationmode  sample-hold
attr source  receptionStateChanged
attr title  "Radio reception state, vector"
vector 23  Test.node[5].iWirelessNic.radio  receptionState:vector  ETV
attr interpolationmode  sample-hold
attr source  receptionStateChanged
attr title  "Radio reception state, vector"
vector 26  Test.node[6].iWirelessNic.radio  receptionState:vector  ETV
attr interpolationmode  sample-hold
attr source  receptionStateChanged
attr title  "Radio reception state, vector"
vector 9  Test.node[0].iWirelessNic.radio  transmissionState:vector  ETV
attr interpolationmode  sample-hold
attr source  transmissionStateChanged
attr title  "Radio transmission state, vector"
vector 18  Test.node[3].iWirelessNic.radio  transmissionState:vector  ETV
attr interpolationmode  sample-hold
attr source  transmissionStateChanged
attr title  "Radio transmission state, vector"
vector 15  Test.node[2].iWirelessNic.radio  transmissionState:vector  ETV
attr interpolationmode  sample-hold
attr source  transmissionStateChanged
attr title  "Radio transmission state, vector"
vector 21  Test.node[4].iWirelessNic.radio  transmissionState:vector  ETV
attr interpolationmode  sample-hold
attr source  transmissionStateChanged
attr title  "Radio transmission state, vector"
vector 27  Test.node[6].iWirelessNic.radio  transmissionState:vector  ETV
attr interpolationmode  sample-hold
attr source  transmissionStateChanged
attr title  "Radio transmission state, vector"
vector 12  Test.node[1].iWirelessNic.radio  transmissionState:vector  ETV
attr interpolationmode  sample-hold
attr source  transmissionStateChanged
attr title  "Radio transmission state, vector"
vector 24  Test.node[5].iWirelessNic.radio  transmissionState:vector  ETV
attr interpolationmode  sample-hold
attr source  transmissionStateChanged
attr title  "Radio transmission state, vector"
vector 0  Test.node[0]  E2E:vector  ETV
vector 6  Test.node[6]  E2E:vector  ETV
0	17813	5.01321323324	5.01321323324
0	17861	5.03055723324	5.03055723324
6	18051	5.118685589781	5.118685589781
6	18159	20.072576768337	0.072576768337
6	18275	40.070976768337	0.070976768337
6	18389	60.072576768337	0.072576768337
6	18503	80.069696768337	0.069696768337
6	18615	100.071296768337	0.071296768337
6	18731	120.071616768337	0.071616768337
6	18843	140.070656768337	0.070656768337
6	18957	160.072256768337	0.072256768337
6	19073	180.072576768337	0.072576768337
6	19185	200.070016768337	0.070016768337
6	19297	220.071616768337	0.071616768337
6	19413	240.072576768337	0.072576768337
6	19525	260.072256768337	0.072256768337
6	19641	280.069696768337	0.069696768337
6	19755	300.071616768337	0.071616768337
6	19867	320.070336768337	0.070336768337
6	19979	340.071296768337	0.071296768337
6	20097	360.070016768337	0.070016768337
6	20207	380.071296768337	0.071296768337
6	20323	400.070656768337	0.070656768337
6	20437	420.072256768337	0.072256768337
6	20549	440.072576768337	0.072576768337
6	20663	460.071616768337	0.071616768337
6	20779	480.067776768337	0.067776768337
6	20891	500.069696768337	0.069696768337
6	21003	520.068736768337	0.068736768337
6	21119	540.069696768337	0.069696768337
6	21233	560.071936768337	0.071936768337
6	21345	580.071936768337	0.071936768337
6	21463	600.070656768337	0.070656768337
6	21571	620.071296768337	0.071296768337
6	21687	640.072256768337	0.072256768337
6	21801	660.070656768337	0.070656768337
6	21915	680.072256768337	0.072256768337
6	22029	700.070016768337	0.070016768337
6	22143	720.069696768337	0.069696768337
6	22255	740.071936768337	0.071936768337
6	22369	760.070976768337	0.070976768337
6	22485	780.073216768337	0.073216768337
6	22597	800.070976768337	0.070976768337
6	22709	820.069056768337	0.069056768337
6	22827	840.070336768337	0.070336768337
6	22937	860.072896768337	0.072896768337
6	23053	880.071936768337	0.071936768337
6	23167	900.071616768337	0.071616768337
6	23279	920.072576768337	0.072576768337
6	23391	940.072576768337	0.072576768337
6	23509	960.072576768337	0.072576768337
6	23621	980.070976768337	0.070976768337
6	23735	1000.071296768337	0.071296768337
6	23849	1020.071936768337	0.071936768337
6	23961	1040.072576768337	0.072576768337
6	24075	1060.072576768337	0.072576768337
6	24191	1080.073216768337	0.073216768337
6	24303	1100.072256768337	0.072256768337
6	24417	1120.070656768337	0.070656768337
6	24531	1140.072576768337	0.072576768337
6	24645	1160.070976768337	0.070976768337
6	24757	1180.071296768337	0.071296768337
6	24875	1200.069056768337	0.069056768337
6	24983	1220.073536768337	0.073536768337
6	25099	1240.069696768337	0.069696768337
6	25215	1260.069696768337	0.069696768337
6	25327	1280.071296768337	0.071296768337
6	25441	1300.069696768337	0.069696768337
6	25555	1320.071616768337	0.071616768337
6	25667	1340.073216768337	0.073216768337
6	25781	1360.069696768337	0.069696768337
6	25897	1380.071936768337	0.071936768337
6	26011	1400.073216768337	0.073216768337
6	26121	1420.070656768337	0.070656768337
6	26239	1440.069696768337	0.069696768337
6	26349	1460.071296768337	0.071296768337
6	26465	1480.068416768337	0.068416768337
6	26579	1500.071936768337	0.071936768337
6	26691	1520.071296768337	0.071296768337
6	26805	1540.072576768337	0.072576768337
6	26921	1560.069696768337	0.069696768337
6	27033	1580.069376768337	0.069376768337
6	27147	1600.071616768337	0.071616768337
6	27261	1620.069376768337	0.069376768337
6	27373	1640.069056768337	0.069056768337
6	27487	1660.072256768337	0.072256768337
6	27605	1680.071296768337	0.071296768337
6	27715	1700.070656768337	0.070656768337
6	27829	1720.068736768337	0.068736768337
6	27943	1740.069376768337	0.069376768337
6	28057	1760.068096768337	0.068096768337
6	28169	1780.070656768337	0.070656768337
6	28287	1800.071936768337	0.071936768337
6	28397	1820.069056768337	0.069056768337
6	28511	1840.071296768337	0.071296768337
6	28627	1860.073216768337	0.073216768337
6	28739	1880.072256768337	0.072256768337
6	28853	1900.071296768337	0.071296768337
6	28967	1920.072576768337	0.072576768337
6	29079	1940.073216768337	0.073216768337
6	29195	1960.070656768337	0.070656768337
6	29309	1980.073216768337	0.073216768337
6	29423	2000.070336768337	0.070336768337
6	29533	2020.070976768337	0.070976768337
6	29651	2040.070976768337	0.070976768337
6	29761	2060.072576768337	0.072576768337
6	29877	2080.071936768337	0.071936768337
6	29993	2100.070656768337	0.070656768337
6	30103	2120.071296768337	0.071296768337
6	30217	2140.072896768337	0.072896768337
6	30333	2160.071936768337	0.071936768337
6	30445	2180.070016768337	0.070016768337
6	30559	2200.068736768337	0.068736768337
6	30673	2220.071296768337	0.071296768337
6	30787	2240.069696768337	0.069696768337
6	30899	2260.071936768337	0.071936768337
6	31017	2280.074176768337	0.074176768337
6	31127	2300.072256768337	0.072256768337
6	31241	2320.074496768337	0.074496768337
6	31355	2340.072896768337	0.072896768337
6	31469	2360.070656768337	0.070656768337
6	31583	2380.070656768337	0.070656768337
6	31699	2400.071936768337	0.071936768337
6	31809	2420.070336768337	0.070336768337
6	31923	2440.067136768337	0.067136768337
6	32039	2460.071936768337	0.071936768337
6	32151	2480.070656768337	0.070656768337
6	32265	2500.071296768337	0.071296768337
6	32381	2520.071296768337	0.071296768337
6	32491	2540.071936768337	0.071936768337
6	32607	2560.070656768337	0.070656768337
6	32721	2580.070976768337	0.070976768337
6	32835	2600.073216768337	0.073216768337
6	32945	2620.070656768337	0.070656768337
6	33063	2640.070016768337	0.070016768337
6	33175	2660.072576768337	0.072576768337
6	33289	2680.070976768337	0.070976768337
6	33405	2700.070656768337	0.070656768337
6	33515	2720.071936768337	0.071936768337
6	33629	2740.071296768337	0.071296768337
6	33745	2760.072256768337	0.072256768337
6	33857	2780.073216768337	0.073216768337
6	33973	2800.069696768337	0.069696768337
6	34085	2820.070336768337	0.070336768337
6	34199	2840.068736768337	0.068736768337
6	34311	2860.073216768337	0.073216768337
6	34429	2880.073536768337	0.073536768337
6	34539	2900.069696768337	0.069696768337
6	34653	2920.070016768337	0.070016768337
6	34769	2940.069376768337	0.069376768337
6	34881	2960.072576768337	0.072576768337
6	34995	2980.070976768337	0.070976768337
6	35111	3000.073216768337	0.073216768337
6	35221	3020.073216768337	0.073216768337
6	35335	3040.071296768337	0.071296768337
6	35451	3060.070976768337	0.070976768337
6	35565	3080.074816768337	0.074816768337
6	35677	3100.072896768337	0.072896768337
6	35793	3120.069696768337	0.069696768337
6	35903	3140.070976768337	0.070976768337
6	36019	3160.072256768337	0.072256768337
6	36133	3180.072576768337	0.072576768337
6	36247	3200.069376768337	0.069376768337
6	36359	3220.070656768337	0.070656768337
6	36475	3240.070976768337	0.070976768337
6	36587	3260.069696768337	0.069696768337
6	36701	3280.070656768337	0.070656768337
6	36817	3300.069376768337	0.069376768337
6	36927	3320.070976768337	0.070976768337
6	37041	3340.071296768337	0.071296768337
6	37159	3360.072576768337	0.072576768337
6	37269	3380.070016768337	0.070016768337
6	37385	3400.071616768337	0.071616768337
6	37497	3420.070336768337	0.070336768337
6	37611	3440.069376768337	0.069376768337
6	37723	3460.070336768337	0.070336768337
6	37841	3480.070656768337	0.070656768337
6	37953	3500.072576768337	0.072576768337
6	38065	3520.071616768337	0.071616768337
6	38181	3540.071936768337	0.071936768337
6	38293	3560.069056768337	0.069056768337
6	38407	3580.072576768337	0.072576768337
6	38523	3600.071936768337	0.071936768337
6	38633	3620.069696768337	0.069696768337
6	38749	3640.071936768337	0.071936768337
6	38863	3660.068416768337	0.068416768337
6	38977	3680.072896768337	0.072896768337
6	39089	3700.072896768337	0.072896768337
6	39205	3720.073536768337	0.073536768337
6	39315	3740.070976768337	0.070976768337
6	39431	3760.073536768337	0.073536768337
6	39547	3780.070656768337	0.070656768337
6	39659	3800.073216768337	0.073216768337
6	39771	3820.070016768337	0.070016768337
6	39887	3840.071936768337	0.071936768337
6	39999	3860.070016768337	0.070016768337
6	40113	3880.071936768337	0.071936768337
6	40229	3900.074816768337	0.074816768337
6	40341	3920.072256768337	0.072256768337
6	40453	3940.074176768337	0.074176768337
6	40571	3960.069696768337	0.069696768337
6	40681	3980.069696768337	0.069696768337
6	40797	4000.072896768337	0.072896768337
6	40909	4020.073216768337	0.073216768337
6	41023	4040.073216768337	0.073216768337
6	41137	4060.070976768337	0.070976768337
6	41253	4080.073216768337	0.073216768337
6	41365	4100.073216768337	0.073216768337
6	41477	4120.071936768337	0.071936768337
6	41593	4140.069696768337	0.069696768337
6	41705	4160.070656768337	0.070656768337
6	41819	4180.071616768337	0.071616768337
6	41937	4200.067776768337	0.067776768337
6	42045	4220.071616768337	0.071616768337
6	42161	4240.070336768337	0.070336768337
6	42275	4260.070976768337	0.070976768337
6	42389	4280.069696768337	0.069696768337
6	42501	4300.072256768337	0.072256768337
6	42617	4320.070016768337	0.070016768337
6	42729	4340.069056768337	0.069056768337
6	42843	4360.070656768337	0.070656768337
6	42959	4380.070016768337	0.070016768337
6	43071	4400.069376768337	0.069376768337
6	43183	4420.072576768337	0.072576768337
6	43299	4440.070336768337	0.070336768337
6	43411	4460.068416768337	0.068416768337
6	43527	4480.072256768337	0.072256768337
6	43641	4500.070976768337	0.070976768337
6	43753	4520.070016768337	0.070016768337
6	43865	4540.068416768337	0.068416768337
6	43983	4560.070336768337	0.070336768337
6	44093	4580.069696768337	0.069696768337
6	44209	4600.069376768337	0.069376768337
6	44323	4620.071616768337	0.071616768337
6	44435	4640.071296768337	0.071296768337
6	44549	4660.070976768337	0.070976768337
6	44665	4680.069376768337	0.069376768337
6	44777	4700.068736768337	0.068736768337
6	44889	4720.071296768337	0.071296768337
6	45005	4740.073536768337	0.073536768337
6	45119	4760.069696768337	0.069696768337
6	45231	4780.071936768337	0.071936768337
6	45349	4800.069056768337	0.069056768337
6	45457	4820.071936768337	0.071936768337
6	45573	4840.072256768337	0.072256768337
6	45687	4860.068416768337	0.068416768337
6	45801	4880.069376768337	0.069376768337
6	45915	4900.069056768337	0.069056768337
6	46029	4920.071616768337	0.071616768337
6	46141	4940.072256768337	0.072256768337
6	46255	4960.071616768337	0.071616768337
6	46371	4980.072256768337	0.072256768337
6	46483	5000.070656768337	0.070656768337
6	46595	5020.069056768337	0.069056768337
6	46713	5040.070976768337	0.070976768337
6	46823	5060.071616768337	0.071616768337
6	46939	5080.070976768337	0.070976768337
6	47053	5100.072256768337	0.072256768337
6	47165	5120.072576768337	0.072576768337
6	47277	5140.070656768337	0.070656768337
6	47395	5160.070336768337	0.070336768337
6	47507	5180.070016768337	0.070016768337
6	47621	5200.071616768337	0.071616768337
6	47735	5220.070656768337	0.070656768337
6	47847	5240.071936768337	0.071936768337
6	47961	5260.071936768337	0.071936768337
6	48077	5280.071296768337	0.071296768337
6	48189	5300.073536768337	0.073536768337
6	48303	5320.068096768337	0.068096768337
6	48417	5340.069056768337	0.069056768337
6	48531	5360.072576768337	0.072576768337
6	48643	5380.072256768337	0.072256768337
6	48761	5400.071296768337	0.071296768337
6	48869	5420.070656768337	0.070656768337
6	48985	5440.069376768337	0.069376768337
6	49101	5460.069696768337	0.069696768337
6	49213	5480.072896768337	0.072896768337
6	49327	5500.071296768337	0.071296768337
6	49441	5520.069696768337	0.069696768337
6	49553	5540.073216768337	0.073216768337
6	49667	5560.070976768337	0.070976768337
6	49783	5580.073536768337	0.073536768337
6	49897	5600.073536768337	0.073536768337
6	50007	5620.069056768337	0.069056768337
6	50125	5640.070656768337	0.070656768337
6	50235	5660.069696768337	0.069696768337
6	50351	5680.069376768337	0.069376768337
6	50465	5700.069056768337	0.069056768337
6	50577	5720.072896768337	0.072896768337
6	50691	5740.071936768337	0.071936768337
6	50807	5760.071296768337	0.071296768337
6	50919	5780.072256768337	0.072256768337
6	51033	5800.070336768337	0.070336768337
6	51147	5820.070336768337	0.070336768337
6	51259	5840.069696768337	0.069696768337
6	51373	5860.070656768337	0.070656768337
6	51491	5880.072896768337	0.072896768337
6	51601	5900.072896768337	0.072896768337
6	51715	5920.070016768337	0.070016768337
6	51829	5940.070336768337	0.070336768337
6	51943	5960.070016768337	0.070016768337
6	52055	5980.069376768337	0.069376768337
6	52173	6000.072256768337	0.072256768337
6	52283	6020.073536768337	0.073536768337
6	52397	6040.070336768337	0.070336768337
6	52513	6060.071296768337	0.071296768337
6	52625	6080.069696768337	0.069696768337
6	52739	6100.070976768337	0.070976768337
6	52853	6120.070336768337	0.070336768337
6	52965	6140.072896768337	0.072896768337
6	53081	6160.071616768337	0.071616768337
6	53195	6180.071616768337	0.071616768337
6	53309	6200.070656768337	0.070656768337
6	53419	6220.071616768337	0.071616768337
6	53537	6240.068416768337	0.068416768337
6	53647	6260.071616768337	0.071616768337
6	53763	6280.072896768337	0.072896768337
6	53879	6300.068416768337	0.068416768337
6	53989	6320.072576768337	0.072576768337
6	54103	6340.074496768337	0.074496768337
6	54219	6360.072256768337	0.072256768337
6	54331	6380.068736768337	0.068736768337
6	54445	6400.071296768337	0.071296768337
6	54559	6420.070976768337	0.070976768337
6	54673	6440.070016768337	0.070016768337
6	54785	6460.070976768337	0.070976768337
6	54903	6480.072576768337	0.072576768337
6	55013	6500.068736768337	0.068736768337
6	55127	6520.073216768337	0.073216768337
6	55241	6540.072896768337	0.072896768337
6	55355	6560.069376768337	0.069376768337
6	55469	6580.072256768337	0.072256768337
6	55585	6600.070976768337	0.070976768337
6	55695	6620.071936768337	0.071936768337
6	55809	6640.073216768337	0.073216768337
6	55925	6660.069376768337	0.069376768337
6	56037	6680.072576768337	0.072576768337
6	56151	6700.070656768337	0.070656768337
6	56267	6720.069696768337	0.069696768337
6	56377	6740.070016768337	0.070016768337
6	56493	6760.070336768337	0.070336768337
6	56607	6780.071936768337	0.071936768337
6	56721	6800.070976768337	0.070976768337
6	56831	6820.074176768337	0.074176768337
6	56949	6840.070976768337	0.070976768337
6	57061	6860.071616768337	0.071616768337
6	57175	6880.072576768337	0.072576768337
6	57291	6900.072896768337	0.072896768337
6	57401	6920.070016768337	0.070016768337
6	57515	6940.070976768337	0.070976768337
6	57631	6960.072256768337	0.072256768337
6	57743	6980.069376768337	0.069376768337
6	57859	7000.071936768337	0.071936768337
6	57971	7020.072256768337	0.072256768337
6	58085	7040.069376768337	0.069376768337
6	58197	7060.069056768337	0.069056768337
6	58315	7080.070976768337	0.070976768337
6	58425	7100.069056768337	0.069056768337
6	58539	7120.072576768337	0.072576768337
6	58655	7140.068416768337	0.068416768337
6	58767	7160.071936768337	0.071936768337
6	58881	7180.071616768337	0.071616768337
6	58997	7200.068736768337	0.068736768337
6	59107	7220.070656768337	0.070656768337
6	59221	7240.071616768337	0.071616768337
6	59337	7260.069056768337	0.069056768337
6	59451	7280.075136768337	0.075136768337
6	59563	7300.070656768337	0.070656768337
6	59679	7320.070976768337	0.070976768337
6	59789	7340.071936768337	0.071936768337
6	59905	7360.073856768337	0.073856768337
6	60019	7380.069376768337	0.069376768337
6	60133	7400.073856768337	0.073856768337
6	60245	7420.071616768337	0.071616768337
6	60361	7440.071296768337	0.071296768337
6	60473	7460.071936768337	0.071936768337
6	60587	7480.073216768337	0.073216768337
6	60703	7500.072256768337	0.072256768337
6	60813	7520.069376768337	0.069376768337
6	60927	7540.071936768337	0.071936768337
6	61045	7560.073216768337	0.073216768337
6	61155	7580.071936768337	0.071936768337
6	61271	7600.071616768337	0.071616768337
6	61383	7620.068736768337	0.068736768337
6	61497	7640.070976768337	0.070976768337
6	61609	7660.072576768337	0.072576768337
6	61727	7680.070976768337	0.070976768337
6	61839	7700.073216768337	0.073216768337
6	61951	7720.071616768337	0.071616768337
6	62067	7740.070656768337	0.070656768337
6	62179	7760.072576768337	0.072576768337
6	62293	7780.072576768337	0.072576768337
6	62409	7800.071936768337	0.071936768337
6	62519	7820.070336768337	0.070336768337
6	62635	7840.068416768337	0.068416768337
6	62749	7860.074496768337	0.074496768337
6	62863	7880.070336768337	0.070336768337
6	62975	7900.070016768337	0.070016768337
6	63091	7920.070976768337	0.070976768337
6	63201	7940.074176768337	0.074176768337
6	63317	7960.071296768337	0.071296768337
6	63433	7980.070976768337	0.070976768337
6	63545	8000.071296768337	0.071296768337
6	63657	8020.070016768337	0.070016768337
6	63773	8040.071616768337	0.071616768337
6	63885	8060.071296768337	0.071296768337
6	63999	8080.073856768337	0.073856768337
6	64115	8100.070976768337	0.070976768337
6	64227	8120.071616768337	0.071616768337
6	64339	8140.072256768337	0.072256768337
6	64457	8160.072256768337	0.072256768337
6	64567	8180.070336768337	0.070336768337
6	64683	8200.072896768337	0.072896768337
6	64795	8220.070336768337	0.070336768337
6	64909	8240.070336768337	0.070336768337
6	65023	8260.071616768337	0.071616768337
6	65139	8280.071296768337	0.071296768337
6	65251	8300.072256768337	0.072256768337
6	65363	8320.070656768337	0.070656768337
6	65479	8340.071296768337	0.071296768337
6	65591	8360.072576768337	0.072576768337
6	65705	8380.072896768337	0.072896768337
6	65823	8400.072256768337	0.072256768337
6	65931	8420.070976768337	0.070976768337
6	66047	8440.071616768337	0.071616768337
6	66161	8460.069376768337	0.069376768337
6	66275	8480.069376768337	0.069376768337
6	66387	8500.070656768337	0.070656768337
6	66503	8520.070016768337	0.070016768337
6	66615	8540.071616768337	0.071616768337
6	66729	8560.070016768337	0.070016768337
6	66845	8580.071936768337	0.071936768337
6	66957	8600.070656768337	0.070656768337
6	67069	8620.068416768337	0.068416768337
6	67185	8640.070336768337	0.070336768337
6	67297	8660.070336768337	0.070336768337
6	67413	8680.072896768337	0.072896768337
6	67527	8700.071936768337	0.071936768337
6	67639	8720.073536768337	0.073536768337
6	67751	8740.070016768337	0.070016768337
6	67869	8760.070336768337	0.070336768337
6	67979	8780.070656768337	0.070656768337
6	68095	8800.068416768337	0.068416768337
6	68209	8820.072256768337	0.072256768337
6	68321	8840.071616768337	0.071616768337
6	68435	8860.071616768337	0.071616768337
6	68551	8880.070656768337	0.070656768337
6	68663	8900.073216768337	0.073216768337
6	68775	8920.069376768337	0.069376768337
6	68891	8940.069376768337	0.069376768337
6	69005	8960.072576768337	0.072576768337
6	69117	8980.070656768337	0.070656768337
6	69235	9000.072576768337	0.072576768337
6	69343	9020.070016768337	0.070016768337
6	69459	9040.070336768337	0.070336768337
6	69573	9060.069376768337	0.069376768337
6	69687	9080.070016768337	0.070016768337
6	69801	9100.070976768337	0.070976768337
6	69915	9120.070976768337	0.070976768337
6	70027	9140.070016768337	0.070016768337
6	70141	9160.069056768337	0.069056768337
6	70257	9180.073216768337	0.073216768337
6	70369	9200.070336768337	0.070336768337
6	70481	9220.072576768337	0.072576768337
6	70599	9240.071296768337	0.071296768337
6	70709	9260.070016768337	0.070016768337
6	70825	9280.073536768337	0.073536768337
6	70939	9300.070336768337	0.070336768337
6	71051	9320.073536768337	0.073536768337
6	71163	9340.071616768337	0.071616768337
6	71281	9360.073536768337	0.073536768337
6	71393	9380.070016768337	0.070016768337
6	71507	9400.073216768337	0.073216768337
6	71621	9420.072256768337	0.072256768337
6	71733	9440.068736768337	0.068736768337
6	71847	9460.072256768337	0.072256768337
6	71963	9480.073216768337	0.073216768337
6	72075	9500.071936768337	0.071936768337
6	72189	9520.072576768337	0.072576768337
6	72303	9540.070976768337	0.070976768337
6	72417	9560.073536768337	0.073536768337
6	72529	9580.069696768337	0.069696768337
6	72647	9600.070016768337	0.070016768337
6	72755	9620.070976768337	0.070976768337
6	72871	9640.074816768337	0.074816768337
6	72987	9660.070656768337	0.070656768337
6	73099	9680.069696768337	0.069696768337
6	73213	9700.068416768337	0.068416768337
6	73327	9720.072896768337	0.072896768337
6	73439	9740.072576768337	0.072576768337
6	73553	9760.070976768337	0.070976768337
6	73669	9780.069696768337	0.069696768337
6	73783	9800.070016768337	0.070016768337
6	73893	9820.072256768337	0.072256768337
6	74011	9840.072256768337	0.072256768337
6	74121	9860.070976768337	0.070976768337
6	74237	9880.070656768337	0.070656768337
6	74351	9900.070656768337	0.070656768337
6	74463	9920.070976768337	0.070976768337
6	74577	9940.069376768337	0.069376768337
6	74693	9960.070976768337	0.070976768337
6	74805	9980.072576768337	0.072576768337
6	74919	10000.068096768337	0.068096768337
6	75033	10020.069376768337	0.069376768337
6	75145	10040.072256768337	0.072256768337
6	75259	10060.070976768337	0.070976768337
6	75377	10080.071616768337	0.071616768337
6	75487	10100.070976768337	0.070976768337
6	75601	10120.069056768337	0.069056768337
6	75715	10140.070336768337	0.070336768337
6	75829	10160.071616768337	0.071616768337
6	75941	10180.071296768337	0.071296768337
6	76059	10200.069696768337	0.069696768337
6	76169	10220.070336768337	0.070336768337
6	76283	10240.071296768337	0.071296768337
6	76399	10260.073536768337	0.073536768337
6	76511	10280.071296768337	0.071296768337
6	76625	10300.070656768337	0.070656768337
6	76739	10320.070016768337	0.070016768337
6	76851	10340.071936768337	0.071936768337
6	76967	10360.071296768337	0.071296768337
6	77081	10380.072576768337	0.072576768337
6	77195	10400.072256768337	0.072256768337
6	77305	10420.072256768337	0.072256768337
6	77423	10440.070016768337	0.070016768337
6	77533	10460.070336768337	0.070336768337
6	77649	10480.070656768337	0.070656768337
6	77765	10500.071296768337	0.071296768337
7	0	0	0
7	0	0	2
7	23	0.000128	3
7	81	0.016704	2
7	283	0.068993073337	3
7	325	0.085569073337	2
7	863	0.220482658424	3
7	906	0.237058658424	2
7	917	0.237186658424	3
7	947	0.253762658424	2
7	1094	0.289667178824	3
7	1137	0.306243178824	2
7	1246	0.342466340729	3
7	1291	0.359042340729	2
7	1386	0.377474835385	3
7	1439	0.394050835385	2
7	1549	0.411843355785	3
7	1591	0.428419355785	2
7	1828	0.480642985295	3
7	1862	0.497218985295	2
7	2004	0.531842985295	3
7	2033	0.548418985295	2
7	2328	0.635458985295	3
7	2352	0.652034985295	2
7	2790	0.772804151577	3
7	2820	0.789380151577	2
7	3892	1.079045760093	3
7	3945	1.095621760093	2
7	4014	1.115077720649	3
7	4045	1.131653720649	2
7	4421	1.235271086325	3
7	4445	1.251847086325	2
7	4542	1.270919606725	3
7	4567	1.287495606725	2
7	4803	1.338824211727	3
7	4852	1.355400211727	2
7	4860	1.356168211727	3
7	4874	1.372744211727	2
7	5239	1.477258022575	3
7	5278	1.493834022575	2
7	5373	1.511306634309	3
7	5418	1.527882634309	2
7	5567	1.561739562988	3
7	5624	1.578315562988	2
7	5710	1.596428083388	3
7	5740	1.613004083388	2
7	5952	1.665612695122	3
7	5979	1.682188695122	2
7	6090	1.700301300124	3
7	6113	1.716877300124	2
7	6421	1.788813820524	3
7	6452	1.805389820524	2
7	6818	1.895500722913	3
7	6828	1.912076722913	2
7	7398	2.070798211445	3
7	7424	2.087374211445	2
7	7509	2.105166823179	3
7	7528	2.121742823179	2
7	7727	2.174479434913	3
7	7760	2.191055434913	2
7	8287	2.330190764644	3
7	8348	2.346766764644	2
7	8690	2.434446764644	3
7	8711	2.451022764644	2
7	8970	2.520270764644	3
7	8998	2.536846764644	2
7	9260	2.605902764644	3
7	9285	2.622478764644	2
7	9573	2.691726764644	3
7	9628	2.708302764644	2
7	9639	2.709070764644	3
7	9677	2.725646764644	2
7	10036	2.831695376378	3
7	10089	2.848271376378	2
7	10261	2.882895376378	3
7	10284	2.899471376378	2
7	10312	2.899599376378	3
7	10371	2.916175376378	2
7	10488	2.952592002707	3
7	10519	2.969168002707	2
7	10632	3.00359978214	3
7	10696	3.02017578214	2
7	11032	3.106192408469	3
7	11066	3.122768408469	2
7	11310	3.191057013471	3
7	11335	3.207633013471	2
7	11421	3.225425731147	3
7	11452	3.242001731147	2
7	11595	3.277458448823	3
7	11631	3.294034448823	2
7	12121	3.432018969223	3
7	12170	3.448594969223	2
7	12289	3.484051595552	3
7	12329	3.500627595552	2
7	12404	3.51931178214	3
7	12459	3.53588778214	2
7	12589	3.571347701481	3
7	12647	3.587923701481	2
7	12709	3.604755701481	3
7	12742	3.621331701481	2
7	13059	3.711508861911	3
7	13082	3.728084861911	2
7	13337	3.779860967839	3
7	13401	3.796436967839	2
7	13508	3.832341935248	3
7	13543	3.848917935248	2
7	13773	3.900758802834	3
7	13796	3.917334802834	2
7	13818	3.917782802834	3
7	13840	3.934358802834	2
7	14122	4.002903414568	3
7	14167	4.019479414568	2
7	14702	4.172505582344	3
7	14735	4.189081582344	2
7	15191	4.310169874683	3
7	15229	4.326745874683	2
7	15394	4.362202491204	3
7	15442	4.378778491204	2
7	15546	4.412954611728	3
7	15569	4.429530611728	2
7	15808	4.480859132128	3
7	15837	4.497435132128	2
7	16061	4.54895590383	3
7	16098	4.56553190383	2
7	16964	4.789212621506	3
7	17029	4.805788621506	2
7	17427	4.908508621506	3
7	17460	4.925084621506	2
7	17563	4.943004621506	3
7	17584	4.959580621506	2
7	17868	5.030876621506	3
7	17896	5.047452621506	2
7	18034	5.10210928728	3
7	18043	5.11868528728	2
7	18142	20.056000465836	3
7	18151	20.072576465836	2
7	18258	40.054400465836	3
7	18267	40.070976465836	2
7	18372	60.056000465836	3
7	18381	60.072576465836	2
7	18486	80.053120465836	3
7	18495	80.069696465836	2
7	18598	100.054720465836	3
7	18607	100.071296465836	2
7	18714	120.055040465836	3
7	18723	120.071616465836	2
7	18826	140.054080465836	3
7	18835	140.070656465836	2
7	18940	160.055680465836	3
7	18949	160.072256465836	2
7	19056	180.056000465836	3
7	19065	180.072576465836	2
7	19168	200.053440465836	3
7	19177	200.070016465836	2
7	19280	220.055040465836	3
7	19289	220.071616465836	2
7	19396	240.056000465836	3
7	19405	240.072576465836	2
7	19508	260.055680465836	3
7	19517	260.072256465836	2
7	19624	280.053120465836	3
7	19633	280.069696465836	2
7	19738	300.055040465836	3
7	19747	300.071616465836	2
7	19850	320.053760465836	3
7	19859	320.070336465836	2
7	19962	340.054720465836	3
7	19971	340.071296465836	2
7	20080	360.053440465836	3
7	20089	360.070016465836	2
7	20190	380.054720465836	3
7	20199	380.071296465836	2
7	20306	400.054080465836	3
7	20315	400.070656465836	2
7	20420	420.055680465836	3
7	20429	420.072256465836	2
7	20532	440.056000465836	3
7	20541	440.072576465836	2
7	20646	460.055040465836	3
7	20655	460.071616465836	2
7	20762	480.051200465836	3
7	20771	480.067776465836	2
7	20874	500.053120465836	3
7	20883	500.069696465836	2
7	20986	520.052160465836	3
7	20995	520.068736465836	2
7	21102	540.053120465836	3
7	21111	540.069696465836	2
7	21216	560.055360465836	3
7	21225	560.071936465836	2
7	21328	580.055360465836	3
7	21337	580.071936465836	2
7	21446	600.054080465836	3
7	21455	600.070656465836	2
7	21554	620.054720465836	3
7	21563	620.071296465836	2
7	21670	640.055680465836	3
7	21679	640.072256465836	2
7	21784	660.054080465836	3
7	21793	660.070656465836	2
7	21898	680.055680465836	3
7	21907	680.072256465836	2
7	22012	700.053440465836	3
7	22021	700.070016465836	2
7	22126	720.053120465836	3
7	22135	720.069696465836	2
7	22238	740.055360465836	3
7	22247	740.071936465836	2
7	22352	760.054400465836	3
7	22361	760.070976465836	2
7	22468	780.056640465836	3
7	22477	780.073216465836	2
7	22580	800.054400465836	3
7	22589	800.070976465836	2
7	22692	820.052480465836	3
7	22701	820.069056465836	2
7	22810	840.053760465836	3
7	22819	840.070336465836	2
7	22920	860.056320465836	3
7	22929	860.072896465836	2
7	23036	880.055360465836	3
7	23045	880.071936465836	2
7	23150	900.055040465836	3
7	23159	900.071616465836	2
7	23262	920.056000465836	3
7	23271	920.072576465836	2
7	23374	940.056000465836	3
7	23383	940.072576465836	2
7	23492	960.056000465836	3
7	23501	960.072576465836	2
7	23604	980.054400465836	3
7	23613	980.070976465836	2
7	23718	1000.054720465836	3
7	23727	1000.071296465836	2
7	23832	1020.055360465836	3
7	23841	1020.071936465836	2
7	23944	1040.056000465836	3
7	23953	1040.072576465836	2
7	24058	1060.056000465836	3
7	24067	1060.072576465836	2
7	24174	1080.056640465836	3
7	24183	1080.073216465836	2
7	24286	1100.055680465836	3
7	24295	1100.072256465836	2
7	24400	1120.054080465836	3
7	24409	1120.070656465836	2
7	24514	1140.056000465836	3
7	24523	1140.072576465836	2
7	24628	1160.054400465836	3
7	24637	1160.070976465836	2
7	24740	1180.054720465836	3
7	24749	1180.071296465836	2
7	24858	1200.052480465836	3
7	24867	1200.069056465836	2
7	24966	1220.056960465836	3
7	24975	1220.073536465836	2
7	25082	1240.053120465836	3
7	25091	1240.069696465836	2
7	25198	1260.053120465836	3
7	25207	1260.069696465836	2
7	25310	1280.054720465836	3
7	25319	1280.071296465836	2
7	25424	1300.053120465836	3
7	25433	1300.069696465836	2
7	25538	1320.055040465836	3
7	25547	1320.071616465836	2
7	25650	1340.056640465836	3
7	25659	1340.073216465836	2
7	25764	1360.053120465836	3
7	25773	1360.069696465836	2
7	25880	1380.055360465836	3
7	25889	1380.071936465836	2
7	25994	1400.056640465836	3
7	26003	1400.073216465836	2
7	26104	1420.054080465836	3
7	26113	1420.070656465836	2
7	26222	1440.053120465836	3
7	26231	1440.069696465836	2
7	26332	1460.054720465836	3
7	26341	1460.071296465836	2
7	26448	1480.051840465836	3
7	26457	1480.068416465836	2
7	26562	1500.055360465836	3
7	26571	1500.071936465836	2
7	26674	1520.054720465836	3
7	26683	1520.071296465836	2
7	26788	1540.056000465836	3
7	26797	1540.072576465836	2
7	26904	1560.053120465836	3
7	26913	1560.069696465836	2
7	27016	1580.052800465836	3
7	27025	1580.069376465836	2
7	27130	1600.055040465836	3
7	27139	1600.071616465836	2
7	27244	1620.052800465836	3
7	27253	1620.069376465836	2
7	27356	1640.052480465836	3
7	27365	1640.069056465836	2
7	27470	1660.055680465836	3
7	27479	1660.072256465836	2
7	27588	1680.054720465836	3
7	27597	1680.071296465836	2
7	27698	1700.054080465836	3
7	27707	1700.070656465836	2
7	27812	1720.052160465836	3
7	27821	1720.068736465836	2
7	27926	1740.052800465836	3
7	27935	1740.069376465836	2
7	28040	1760.051520465836	3
7	28049	1760.068096465836	2
7	28152	1780.054080465836	3
7	28161	1780.070656465836	2
7	28270	1800.055360465836	3
7	28279	1800.071936465836	2
7	28380	1820.052480465836	3
7	28389	1820.069056465836	2
7	28494	1840.054720465836	3
7	28503	1840.071296465836	2
7	28610	1860.056640465836	3
7	28619	1860.073216465836	2
7	28722	1880.055680465836	3
7	28731	1880.072256465836	2
7	28836	1900.054720465836	3
7	28845	1900.071296465836	2
7	28950	1920.056000465836	3
7	28959	1920.072576465836	2
7	29062	1940.056640465836	3
7	29071	1940.073216465836	2
7	29178	1960.054080465836	3
7	29187	1960.070656465836	2
7	29292	1980.056640465836	3
7	29301	1980.073216465836	2
7	29406	2000.053760465836	3
7	29415	2000.070336465836	2
7	29516	2020.054400465836	3
7	29525	2020.070976465836	2
7	29634	2040.054400465836	3
7	29643	2040.070976465836	2
7	29744	2060.056000465836	3
7	29753	2060.072576465836	2
7	29860	2080.055360465836	3
7	29869	2080.071936465836	2
7	29976	2100.054080465836	3
7	29985	2100.070656465836	2
7	30086	2120.054720465836	3
7	30095	2120.071296465836	2
7	30200	2140.056320465836	3
7	30209	2140.072896465836	2
7	30316	2160.055360465836	3
7	30325	2160.071936465836	2
7	30428	2180.053440465836	3
7	30437	2180.070016465836	2
7	30542	2200.052160465836	3
7	30551	2200.068736465836	2
7	30656	2220.054720465836	3
7	30665	2220.071296465836	2
7	30770	2240.053120465836	3
7	30779	2240.069696465836	2
7	30882	2260.055360465836	3
7	30891	2260.071936465836	2
7	31000	2280.057600465836	3
7	31009	2280.074176465836	2
7	31110	2300.055680465836	3
7	31119	2300.072256465836	2
7	31224	2320.057920465836	3
7	31233	2320.074496465836	2
7	31338	2340.056320465836	3
7	31347	2340.072896465836	2
7	31452	2360.054080465836	3
7	31461	2360.070656465836	2
7	31566	2380.054080465836	3
7	31575	2380.070656465836	2
7	31682	2400.055360465836	3
7	31691	2400.071936465836	2
7	31792	2420.053760465836	3
7	31801	2420.070336465836	2
7	31906	2440.050560465836	3
7	31915	2440.067136465836	2
7	32022	2460.055360465836	3
7	32031	2460.071936465836	2
7	32134	2480.054080465836	3
7	32143	2480.070656465836	2
7	32248	2500.054720465836	3
7	32257	2500.071296465836	2
7	32364	2520.054720465836	3
7	32373	2520.071296465836	2
7	32474	2540.055360465836	3
7	32483	2540.071936465836	2
7	32590	2560.054080465836	3
7	32599	2560.070656465836	2
7	32704	2580.054400465836	3
7	32713	2580.070976465836	2
7	32818	2600.056640465836	3
7	32827	2600.073216465836	2
7	32928	2620.054080465836	3
7	32937	2620.070656465836	2
7	33046	2640.053440465836	3
7	33055	2640.070016465836	2
7	33158	2660.056000465836	3
7	33167	2660.072576465836	2
7	33272	2680.054400465836	3
7	33281	2680.070976465836	2
7	33388	2700.054080465836	3
7	33397	2700.070656465836	2
7	33498	2720.055360465836	3
7	33507	2720.071936465836	2
7	33612	2740.054720465836	3
7	33621	2740.071296465836	2
7	33728	2760.055680465836	3
7	33737	2760.072256465836	2
7	33840	2780.056640465836	3
7	33849	2780.073216465836	2
7	33956	2800.053120465836	3
7	33965	2800.069696465836	2
7	34068	2820.053760465836	3
7	34077	2820.070336465836	2
7	34182	2840.052160465836	3
7	34191	2840.068736465836	2
7	34294	2860.056640465836	3
7	34303	2860.073216465836	2
7	34412	2880.056960465836	3
7	34421	2880.073536465836	2
7	34522	2900.053120465836	3
7	34531	2900.069696465836	2
7	34636	2920.053440465836	3
7	34645	2920.070016465836	2
7	34752	2940.052800465836	3
7	34761	2940.069376465836	2
7	34864	2960.056000465836	3
7	34873	2960.072576465836	2
7	34978	2980.054400465836	3
7	34987	2980.070976465836	2
7	35094	3000.056640465836	3
7	35103	3000.073216465836	2
7	35204	3020.056640465836	3
7	35213	3020.073216465836	2
7	35318	3040.054720465836	3
7	35327	3040.071296465836	2
7	35434	3060.054400465836	3
7	35443	3060.070976465836	2
7	35548	3080.058240465836	3
7	35557	3080.074816465836	2
7	35660	3100.056320465836	3
7	35669	3100.072896465836	2
7	35776	3120.053120465836	3
7	35785	3120.069696465836	2
7	35886	3140.054400465836	3
7	35895	3140.070976465836	2
7	36002	3160.055680465836	3
7	36011	3160.072256465836	2
7	36116	3180.056000465836	3
7	36125	3180.072576465836	2
7	36230	3200.052800465836	3
7	36239	3200.069376465836	2
7	36342	3220.054080465836	3
7	36351	3220.070656465836	2
7	36458	3240.054400465836	3
7	36467	3240.070976465836	2
7	36570	3260.053120465836	3
7	36579	3260.069696465836	2
7	36684	3280.054080465836	3
7	36693	3280.070656465836	2
7	36800	3300.052800465836	3
7	36809	3300.069376465836	2
7	36910	3320.054400465836	3
7	36919	3320.070976465836	2
7	37024	3340.054720465836	3
7	37033	3340.071296465836	2
7	37142	3360.056000465836	3
7	37151	3360.072576465836	2
7	37252	3380.053440465836	3
7	37261	3380.070016465836	2
7	37368	3400.055040465836	3
7	37377	3400.071616465836	2
7	37480	3420.053760465836	3
7	37489	3420.070336465836	2
7	37594	3440.052800465836	3
7	37603	3440.069376465836	2
7	37706	3460.053760465836	3
7	37715	3460.070336465836	2
7	37824	3480.054080465836	3
7	37833	3480.070656465836	2
7	37936	3500.056000465836	3
7	37945	3500.072576465836	2
7	38048	3520.055040465836	3
7	38057	3520.071616465836	2
7	38164	3540.055360465836	3
7	38173	3540.071936465836	2
7	38276	3560.052480465836	3
7	38285	3560.069056465836	2
7	38390	3580.056000465836	3
7	38399	3580.072576465836	2
7	38506	3600.055360465836	3
7	38515	3600.071936465836	2
7	38616	3620.053120465836	3
7	38625	3620.069696465836	2
7	38732	3640.055360465836	3
7	38741	3640.071936465836	2
7	38846	3660.051840465836	3
7	38855	3660.068416465836	2
7	38960	3680.056320465836	3
7	38969	3680.072896465836	2
7	39072	3700.056320465836	3
7	39081	3700.072896465836	2
7	39188	3720.056960465836	3
7	39197	3720.073536465836	2
7	39298	3740.054400465836	3
7	39307	3740.070976465836	2
7	39414	3760.056960465836	3
7	39423	3760.073536465836	2
7	39530	3780.054080465836	3
7	39539	3780.070656465836	2
7	39642	3800.056640465836	3
7	39651	3800.073216465836	2
7	39754	3820.053440465836	3
7	39763	3820.070016465836	2
7	39870	3840.055360465836	3
7	39879	3840.071936465836	2
7	39982	3860.053440465836	3
7	39991	3860.070016465836	2
7	40096	3880.055360465836	3
7	40105	3880.071936465836	2
7	40212	3900.058240465836	3
7	40221	3900.074816465836	2
7	40324	3920.055680465836	3
7	40333	3920.072256465836	2
7	40436	3940.057600465836	3
7	40445	3940.074176465836	2
7	40554	3960.053120465836	3
7	40563	3960.069696465836	2
7	40664	3980.053120465836	3
7	40673	3980.069696465836	2
7	40780	4000.056320465836	3
7	40789	4000.072896465836	2
7	40892	4020.056640465836	3
7	40901	4020.073216465836	2
7	41006	4040.056640465836	3
7	41015	4040.073216465836	2
7	41120	4060.054400465836	3
7	41129	4060.070976465836	2
7	41236	4080.056640465836	3
7	41245	4080.073216465836	2
7	41348	4100.056640465836	3
7	41357	4100.073216465836	2
7	41460	4120.055360465836	3
7	41469	4120.071936465836	2
7	41576	4140.053120465836	3
7	41585	4140.069696465836	2
7	41688	4160.054080465836	3
7	41697	4160.070656465836	2
7	41802	4180.055040465836	3
7	41811	4180.071616465836	2
7	41920	4200.051200465836	3
7	41929	4200.067776465836	2
7	42028	4220.055040465836	3
7	42037	4220.071616465836	2
7	42144	4240.053760465836	3
7	42153	4240.070336465836	2
7	42258	4260.054400465836	3
7	42267	4260.070976465836	2
7	42372	4280.053120465836	3
7	42381	4280.069696465836	2
7	42484	4300.055680465836	3
7	42493	4300.072256465836	2
7	42600	4320.053440465836	3
7	42609	4320.070016465836	2
7	42712	4340.052480465836	3
7	42721	4340.069056465836	2
7	42826	4360.054080465836	3
7	42835	4360.070656465836	2
7	42942	4380.053440465836	3
7	42951	4380.070016465836	2
7	43054	4400.052800465836	3
7	43063	4400.069376465836	2
7	43166	4420.056000465836	3
7	43175	4420.072576465836	2
7	43282	4440.053760465836	3
7	43291	4440.070336465836	2
7	43394	4460.051840465836	3
7	43403	4460.068416465836	2
7	43510	4480.055680465836	3
7	43519	4480.072256465836	2
7	43624	4500.054400465836	3
7	43633	4500.070976465836	2
7	43736	4520.053440465836	3
7	43745	4520.070016465836	2
7	43848	4540.051840465836	3
7	43857	4540.068416465836	2
7	43966	4560.053760465836	3
7	43975	4560.070336465836	2
7	44076	4580.053120465836	3
7	44085	4580.069696465836	2
7	44192	4600.052800465836	3
7	44201	4600.069376465836	2
7	44306	4620.055040465836	3
7	44315	4620.071616465836	2
7	44418	4640.054720465836	3
7	44427	4640.071296465836	2
7	44532	4660.054400465836	3
7	44541	4660.070976465836	2
7	44648	4680.052800465836	3
7	44657	4680.069376465836	2
7	44760	4700.052160465836	3
7	44769	4700.068736465836	2
7	44872	4720.054720465836	3
7	44881	4720.071296465836	2
7	44988	4740.056960465836	3
7	44997	4740.073536465836	2
7	45102	4760.053120465836	3
7	45111	4760.069696465836	2
7	45214	4780.055360465836	3
7	45223	4780.071936465836	2
7	45332	4800.052480465836	3
7	45341	4800.069056465836	2
7	45440	4820.055360465836	3
7	45449	4820.071936465836	2
7	45556	4840.055680465836	3
7	45565	4840.072256465836	2
7	45670	4860.051840465836	3
7	45679	4860.068416465836	2
7	45784	4880.052800465836	3
7	45793	4880.069376465836	2
7	45898	4900.052480465836	3
7	45907	4900.069056465836	2
7	46012	4920.055040465836	3
7	46021	4920.071616465836	2
7	46124	4940.055680465836	3
7	46133	4940.072256465836	2
7	46238	4960.055040465836	3
7	46247	4960.071616465836	2
7	46354	4980.055680465836	3
7	46363	4980.072256465836	2
7	46466	5000.054080465836	3
7	46475	5000.070656465836	2
7	46578	5020.052480465836	3
7	46587	5020.069056465836	2
7	46696	5040.054400465836	3
7	46705	5040.070976465836	2
7	46806	5060.055040465836	3
7	46815	5060.071616465836	2
7	46922	5080.054400465836	3
7	46931	5080.070976465836	2
7	47036	5100.055680465836	3
7	47045	5100.072256465836	2
7	47148	5120.056000465836	3
7	47157	5120.072576465836	2
7	47260	5140.054080465836	3
7	47269	5140.070656465836	2
7	47378	5160.053760465836	3
7	47387	5160.070336465836	2
7	47490	5180.053440465836	3
7	47499	5180.070016465836	2
7	47604	5200.055040465836	3
7	47613	5200.071616465836	2
7	47718	5220.054080465836	3
7	47727	5220.070656465836	2
7	47830	5240.055360465836	3
7	47839	5240.071936465836	2
7	47944	5260.055360465836	3
7	47953	5260.071936465836	2
7	48060	5280.054720465836	3
7	48069	5280.071296465836	2
7	48172	5300.056960465836	3
7	48181	5300.073536465836	2
7	48286	5320.051520465836	3
7	48295	5320.068096465836	2
7	48400	5340.052480465836	3
7	48409	5340.069056465836	2
7	48514	5360.056000465836	3
7	48523	5360.072576465836	2
7	48626	5380.055680465836	3
7	48635	5380.072256465836	2
7	48744	5400.054720465836	3
7	48753	5400.071296465836	2
7	48852	5420.054080465836	3
7	48861	5420.070656465836	2
7	48968	5440.052800465836	3
7	48977	5440.069376465836	2
7	49084	5460.053120465836	3
7	49093	5460.069696465836	2
7	49196	5480.056320465836	3
7	49205	5480.072896465836	2
7	49310	5500.054720465836	3
7	49319	5500.071296465836	2
7	49424	5520.053120465836	3
7	49433	5520.069696465836	2
7	49536	5540.056640465836	3
7	49545	5540.073216465836	2
7	49650	5560.054400465836	3
7	49659	5560.070976465836	2
7	49766	5580.056960465836	3
7	49775	5580.073536465836	2
7	49880	5600.056960465836	3
7	49889	5600.073536465836	2
7	49990	5620.052480465836	3
7	49999	5620.069056465836	2
7	50108	5640.054080465836	3
7	50117	5640.070656465836	2
7	50218	5660.053120465836	3
7	50227	5660.069696465836	2
7	50334	5680.052800465836	3
7	50343	5680.069376465836	2
7	50448	5700.052480465836	3
7	50457	5700.069056465836	2
7	50560	5720.056320465836	3
7	50569	5720.072896465836	2
7	50674	5740.055360465836	3
7	50683	5740.071936465836	2
7	50790	5760.054720465836	3
7	50799	5760.071296465836	2
7	50902	5780.055680465836	3
7	50911	5780.072256465836	2
7	51016	5800.053760465836	3
7	51025	5800.070336465836	2
7	51130	5820.053760465836	3
7	51139	5820.070336465836	2
7	51242	5840.053120465836	3
7	51251	5840.069696465836	2
7	51356	5860.054080465836	3
7	51365	5860.070656465836	2
7	51474	5880.056320465836	3
7	51483	5880.072896465836	2
7	51584	5900.056320465836	3
7	51593	5900.072896465836	2
7	51698	5920.053440465836	3
7	51707	5920.070016465836	2
7	51812	5940.053760465836	3
7	51821	5940.070336465836	2
7	51926	5960.053440465836	3
7	51935	5960.070016465836	2
7	52038	5980.052800465836	3
7	52047	5980.069376465836	2
7	52156	6000.055680465836	3
7	52165	6000.072256465836	2
7	52266	6020.056960465836	3
7	52275	6020.073536465836	2
7	52380	6040.053760465836	3
7	52389	6040.070336465836	2
7	52496	6060.054720465836	3
7	52505	6060.071296465836	2
7	52608	6080.053120465836	3
7	52617	6080.069696465836	2
7	52722	6100.054400465836	3
7	52731	6100.070976465836	2
7	52836	6120.053760465836	3
7	52845	6120.070336465836	2
7	52948	6140.056320465836	3
7	52957	6140.072896465836	2
7	53064	6160.055040465836	3
7	53073	6160.071616465836	2
7	53178	6180.055040465836	3
7	53187	6180.071616465836	2
7	53292	6200.054080465836	3
7	53301	6200.070656465836	2
7	53402	6220.055040465836	3
7	53411	6220.071616465836	2
7	53520	6240.051840465836	3
7	53529	6240.068416465836	2
7	53630	6260.055040465836	3
7	53639	6260.071616465836	2
7	53746	6280.056320465836	3
7	53755	6280.072896465836	2
7	53862	6300.051840465836	3
7	53871	6300.068416465836	2
7	53972	6320.056000465836	3
7	53981	6320.072576465836	2
7	54086	6340.057920465836	3
7	54095	6340.074496465836	2
7	54202	6360.055680465836	3
7	54211	6360.072256465836	2
7	54314	6380.052160465836	3
7	54323	6380.068736465836	2
7	54428	6400.054720465836	3
7	54437	6400.071296465836	2
7	54542	6420.054400465836	3
7	54551	6420.070976465836	2
7	54656	6440.053440465836	3
7	54665	6440.070016465836	2
7	54768	6460.054400465836	3
7	54777	6460.070976465836	2
7	54886	6480.056000465836	3
7	54895	6480.072576465836	2
7	54996	6500.052160465836	3
7	55005	6500.068736465836	2
7	55110	6520.056640465836	3
7	55119	6520.073216465836	2
7	55224	6540.056320465836	3
7	55233	6540.072896465836	2
7	55338	6560.052800465836	3
7	55347	6560.069376465836	2
7	55452	6580.055680465836	3
7	55461	6580.072256465836	2
7	55568	6600.054400465836	3
7	55577	6600.070976465836	2
7	55678	6620.055360465836	3
7	55687	6620.071936465836	2
7	55792	6640.056640465836	3
7	55801	6640.073216465836	2
7	55908	6660.052800465836	3
7	55917	6660.069376465836	2
7	56020	6680.056000465836	3
7	56029	6680.072576465836	2
7	56134	6700.054080465836	3
7	56143	6700.070656465836	2
7	56250	6720.053120465836	3
7	56259	6720.069696465836	2
7	56360	6740.053440465836	3
7	56369	6740.070016465836	2
7	56476	6760.053760465836	3
7	56485	6760.070336465836	2
7	56590	6780.055360465836	3
7	56599	6780.071936465836	2
7	56704	6800.054400465836	3
7	56713	6800.070976465836	2
7	56814	6820.057600465836	3
7	56823	6820.074176465836	2
7	56932	6840.054400465836	3
7	56941	6840.070976465836	2
7	57044	6860.055040465836	3
7	57053	6860.071616465836	2
7	57158	6880.056000465836	3
7	57167	6880.072576465836	2
7	57274	6900.056320465836	3
7	57283	6900.072896465836	2
7	57384	6920.053440465836	3
7	57393	6920.070016465836	2
7	57498	6940.054400465836	3
7	57507	6940.070976465836	2
7	57614	6960.055680465836	3
7	57623	6960.072256465836	2
7	57726	6980.052800465836	3
7	57735	6980.069376465836	2
7	57842	7000.055360465836	3
7	57851	7000.071936465836	2
7	57954	7020.055680465836	3
7	57963	7020.072256465836	2
7	58068	7040.052800465836	3
7	58077	7040.069376465836	2
7	58180	7060.052480465836	3
7	58189	7060.069056465836	2
7	58298	7080.054400465836	3
7	58307	7080.070976465836	2
7	58408	7100.052480465836	3
7	58417	7100.069056465836	2
7	58522	7120.056000465836	3
7	58531	7120.072576465836	2
7	58638	7140.051840465836	3
7	58647	7140.068416465836	2
7	58750	7160.055360465836	3
7	58759	7160.071936465836	2
7	58864	7180.055040465836	3
7	58873	7180.071616465836	2
7	58980	7200.052160465836	3
7	58989	7200.068736465836	2
7	59090	7220.054080465836	3
7	59099	7220.070656465836	2
7	59204	7240.055040465836	3
7	59213	7240.071616465836	2
7	59320	7260.052480465836	3
7	59329	7260.069056465836	2
7	59434	7280.058560465836	3
7	59443	7280.075136465836	2
7	59546	7300.054080465836	3
7	59555	7300.070656465836	2
7	59662	7320.054400465836	3
7	59671	7320.070976465836	2
7	59772	7340.055360465836	3
7	59781	7340.071936465836	2
7	59888	7360.057280465836	3
7	59897	7360.073856465836	2
7	60002	7380.052800465836	3
7	60011	7380.069376465836	2
7	60116	7400.057280465836	3
7	60125	7400.073856465836	2
7	60228	7420.055040465836	3
7	60237	7420.071616465836	2
7	60344	7440.054720465836	3
7	60353	7440.071296465836	2
7	60456	7460.055360465836	3
7	60465	7460.071936465836	2
7	60570	7480.056640465836	3
7	60579	7480.073216465836	2
7	60686	7500.055680465836	3
7	60695	7500.072256465836	2
7	60796	7520.052800465836	3
7	60805	7520.069376465836	2
7	60910	7540.055360465836	3
7	60919	7540.071936465836	2
7	61028	7560.056640465836	3
7	61037	7560.073216465836	2
7	61138	7580.055360465836	3
7	61147	7580.071936465836	2
7	61254	7600.055040465836	3
7	61263	7600.071616465836	2
7	61366	7620.052160465836	3
7	61375	7620.068736465836	2
7	61480	7640.054400465836	3
7	61489	7640.070976465836	2
7	61592	7660.056000465836	3
7	61601	7660.072576465836	2
7	61710	7680.054400465836	3
7	61719	7680.070976465836	2
7	61822	7700.056640465836	3
7	61831	7700.073216465836	2
7	61934	7720.055040465836	3
7	61943	7720.071616465836	2
7	62050	7740.054080465836	3
7	62059	7740.070656465836	2
7	62162	7760.056000465836	3
7	62171	7760.072576465836	2
7	62276	7780.056000465836	3
7	62285	7780.072576465836	2
7	62392	7800.055360465836	3
7	62401	7800.071936465836	2
7	62502	7820.053760465836	3
7	62511	7820.070336465836	2
7	62618	7840.051840465836	3
7	62627	7840.068416465836	2
7	62732	7860.057920465836	3
7	62741	7860.074496465836	2
7	62846	7880.053760465836	3
7	62855	7880.070336465836	2
7	62958	7900.053440465836	3
7	62967	7900.070016465836	2
7	63074	7920.054400465836	3
7	63083	7920.070976465836	2
7	63184	7940.057600465836	3
7	63193	7940.074176465836	2
7	63300	7960.054720465836	3
7	63309	7960.071296465836	2
7	63416	7980.054400465836	3
7	63425	7980.070976465836	2
7	63528	8000.054720465836	3
7	63537	8000.071296465836	2
7	63640	8020.053440465836	3
7	63649	8020.070016465836	2
7	63756	8040.055040465836	3
7	63765	8040.071616465836	2
7	63868	8060.054720465836	3
7	63877	8060.071296465836	2
7	63982	8080.057280465836	3
7	63991	8080.073856465836	2
7	64098	8100.054400465836	3
7	64107	8100.070976465836	2
7	64210	8120.055040465836	3
7	64219	8120.071616465836	2
7	64322	8140.055680465836	3
7	64331	8140.072256465836	2
7	64440	8160.055680465836	3
7	64449	8160.072256465836	2
7	64550	8180.053760465836	3
7	64559	8180.070336465836	2
7	64666	8200.056320465836	3
7	64675	8200.072896465836	2
7	64778	8220.053760465836	3
7	64787	8220.070336465836	2
7	64892	8240.053760465836	3
7	64901	8240.070336465836	2
7	65006	8260.055040465836	3
7	65015	8260.071616465836	2
7	65122	8280.054720465836	3
7	65131	8280.071296465836	2
7	65234	8300.055680465836	3
7	65243	8300.072256465836	2
7	65346	8320.054080465836	3
7	65355	8320.070656465836	2
7	65462	8340.054720465836	3
7	65471	8340.071296465836	2
7	65574	8360.056000465836	3
7	65583	8360.072576465836	2
7	65688	8380.056320465836	3
7	65697	8380.072896465836	2
7	65806	8400.055680465836	3
7	65815	8400.072256465836	2
7	65914	8420.054400465836	3
7	65923	8420.070976465836	2
7	66030	8440.055040465836	3
7	66039	8440.071616465836	2
7	66144	8460.052800465836	3
7	66153	8460.069376465836	2
7	66258	8480.052800465836	3
7	66267	8480.069376465836	2
7	66370	8500.054080465836	3
7	66379	8500.070656465836	2
7	66486	8520.053440465836	3
7	66495	8520.070016465836	2
7	66598	8540.055040465836	3
7	66607	8540.071616465836	2
7	66712	8560.053440465836	3
7	66721	8560.070016465836	2
7	66828	8580.055360465836	3
7	66837	8580.071936465836	2
7	66940	8600.054080465836	3
7	66949	8600.070656465836	2
7	67052	8620.051840465836	3
7	67061	8620.068416465836	2
7	67168	8640.053760465836	3
7	67177	8640.070336465836	2
7	67280	8660.053760465836	3
7	67289	8660.070336465836	2
7	67396	8680.056320465836	3
7	67405	8680.072896465836	2
7	67510	8700.055360465836	3
7	67519	8700.071936465836	2
7	67622	8720.056960465836	3
7	67631	8720.073536465836	2
7	67734	8740.053440465836	3
7	67743	8740.070016465836	2
7	67852	8760.053760465836	3
7	67861	8760.070336465836	2
7	67962	8780.054080465836	3
7	67971	8780.070656465836	2
7	68078	8800.051840465836	3
7	68087	8800.068416465836	2
7	68192	8820.055680465836	3
7	68201	8820.072256465836	2
7	68304	8840.055040465836	3
7	68313	8840.071616465836	2
7	68418	8860.055040465836	3
7	68427	8860.071616465836	2
7	68534	8880.054080465836	3
7	68543	8880.070656465836	2
7	68646	8900.056640465836	3
7	68655	8900.073216465836	2
7	68758	8920.052800465836	3
7	68767	8920.069376465836	2
7	68874	8940.052800465836	3
7	68883	8940.069376465836	2
7	68988	8960.056000465836	3
7	68997	8960.072576465836	2
7	69100	8980.054080465836	3
7	69109	8980.070656465836	2
7	69218	9000.056000465836	3
7	69227	9000.072576465836	2
7	69326	9020.053440465836	3
7	69335	9020.070016465836	2
7	69442	9040.053760465836	3
7	69451	9040.070336465836	2
7	69556	9060.052800465836	3
7	69565	9060.069376465836	2
7	69670	9080.053440465836	3
7	69679	9080.070016465836	2
7	69784	9100.054400465836	3
7	69793	9100.070976465836	2
7	69898	9120.054400465836	3
7	69907	9120.070976465836	2
7	70010	9140.053440465836	3
7	70019	9140.070016465836	2
7	70124	9160.052480465836	3
7	70133	9160.069056465836	2
7	70240	9180.056640465836	3
7	70249	9180.073216465836	2
7	70352	9200.053760465836	3
7	70361	9200.070336465836	2
7	70464	9220.056000465836	3
7	70473	9220.072576465836	2
7	70582	9240.054720465836	3
7	70591	9240.071296465836	2
7	70692	9260.053440465836	3
7	70701	9260.070016465836	2
7	70808	9280.056960465836	3
7	70817	9280.073536465836	2
7	70922	9300.053760465836	3
7	70931	9300.070336465836	2
7	71034	9320.056960465836	3
7	71043	9320.073536465836	2
7	71146	9340.055040465836	3
7	71155	9340.071616465836	2
7	71264	9360.056960465836	3
7	71273	9360.073536465836	2
7	71376	9380.053440465836	3
7	71385	9380.070016465836	2
7	71490	9400.056640465836	3
7	71499	9400.073216465836	2
7	71604	9420.055680465836	3
7	71613	9420.072256465836	2
7	71716	9440.052160465836	3
7	71725	9440.068736465836	2
7	71830	9460.055680465836	3
7	71839	9460.072256465836	2
7	71946	9480.056640465836	3
7	71955	9480.073216465836	2
7	72058	9500.055360465836	3
7	72067	9500.071936465836	2
7	72172	9520.056000465836	3
7	72181	9520.072576465836	2
7	72286	9540.054400465836	3
7	72295	9540.070976465836	2
7	72400	9560.056960465836	3
7	72409	9560.073536465836	2
7	72512	9580.053120465836	3
7	72521	9580.069696465836	2
7	72630	9600.053440465836	3
7	72639	9600.070016465836	2
7	72738	9620.054400465836	3
7	72747	9620.070976465836	2
7	72854	9640.058240465836	3
7	72863	9640.074816465836	2
7	72970	9660.054080465836	3
7	72979	9660.070656465836	2
7	73082	9680.053120465836	3
7	73091	9680.069696465836	2
7	73196	9700.051840465836	3
7	73205	9700.068416465836	2
7	73310	9720.056320465836	3
7	73319	9720.072896465836	2
7	73422	9740.056000465836	3
7	73431	9740.072576465836	2
7	73536	9760.054400465836	3
7	73545	9760.070976465836	2
7	73652	9780.053120465836	3
7	73661	9780.069696465836	2
7	73766	9800.053440465836	3
7	73775	9800.070016465836	2
7	73876	9820.055680465836	3
7	73885	9820.072256465836	2
7	73994	9840.055680465836	3
7	74003	9840.072256465836	2
7	74104	9860.054400465836	3
7	74113	9860.070976465836	2
7	74220	9880.054080465836	3
7	74229	9880.070656465836	2
7	74334	9900.054080465836	3
7	74343	9900.070656465836	2
7	74446	9920.054400465836	3
7	74455	9920.070976465836	2
7	74560	9940.052800465836	3
7	74569	9940.069376465836	2
7	74676	9960.054400465836	3
7	74685	9960.070976465836	2
7	74788	9980.056000465836	3
7	74797	9980.072576465836	2
7	74902	10000.051520465836	3
7	74911	10000.068096465836	2
7	75016	10020.052800465836	3
7	75025	10020.069376465836	2
7	75128	10040.055680465836	3
7	75137	10040.072256465836	2
7	75242	10060.054400465836	3
7	75251	10060.070976465836	2
7	75360	10080.055040465836	3
7	75369	10080.071616465836	2
7	75470	10100.054400465836	3
7	75479	10100.070976465836	2
7	75584	10120.052480465836	3
7	75593	10120.069056465836	2
7	75698	10140.053760465836	3
7	75707	10140.070336465836	2
7	75812	10160.055040465836	3
7	75821	10160.071616465836	2
7	75924	10180.054720465836	3
7	75933	10180.071296465836	2
7	76042	10200.053120465836	3
7	76051	10200.069696465836	2
7	76152	10220.053760465836	3
7	76161	10220.070336465836	2
7	76266	10240.054720465836	3
7	76275	10240.071296465836	2
7	76382	10260.056960465836	3
7	76391	10260.073536465836	2
7	76494	10280.054720465836	3
7	76503	10280.071296465836	2
7	76608	10300.054080465836	3
7	76617	10300.070656465836	2
7	76722	10320.053440465836	3
7	76731	10320.070016465836	2
7	76834	10340.055360465836	3
7	76843	10340.071936465836	2
7	76950	10360.054720465836	3
7	76959	10360.071296465836	2
7	77064	10380.056000465836	3
7	77073	10380.072576465836	2
7	77178	10400.055680465836	3
7	77187	10400.072256465836	2
7	77288	10420.055680465836	3
7	77297	10420.072256465836	2
7	77406	10440.053440465836	3
7	77415	10440.070016465836	2
7	77516	10460.053760465836	3
7	77525	10460.070336465836	2
7	77632	10480.054080465836	3
7	77641	10480.070656465836	2
7	77748	10500.054720465836	3
7	77757	10500.071296465836	2
8	0	0	1
8	23	0.000128	0
8	81	0.016704	1
8	111	0.017344980392	3
8	170	0.033728980392	2
8	183	0.035009073337	3
8	220	0.051393073337	1
8	231	0.052353365676	3
8	263	0.068737365676	1
8	283	0.068993073337	0
8	325	0.085569073337	1
8	342	0.086081516091	3
8	397	0.102465516091	2
8	402	0.102465622019	1
8	414	0.102785661465	3
8	437	0.119169661465	1
8	468	0.119810060237	3
8	526	0.136194060237	1
8	539	0.136514074832	3
8	586	0.152898074832	1
8	597	0.153218220206	3
8	621	0.169602220206	1
8	656	0.16992251305	3
8	716	0.18630651305	2
8	725	0.186306775955	1
8	739	0.186946658424	3
8	767	0.203330658424	1
8	796	0.203970951268	3
8	852	0.220354951268	1
8	863	0.220482658424	0
8	906	0.237058658424	1
8	917	0.237186658424	0
8	947	0.253762658424	1
8	975	0.255362180761	3
8	1021	0.271746180761	1
8	1035	0.272515178824	3
8	1081	0.288899178824	1
8	1094	0.289667178824	0
8	1137	0.306243178824	1
8	1156	0.309250180761	3
8	1174	0.325634180761	1
8	1186	0.325954340729	3
8	1221	0.342338340729	1
8	1246	0.342466340729	0
8	1291	0.359042340729	1
8	1321	0.360642835385	3
8	1377	0.377026835385	1
8	1386	0.377474835385	0
8	1439	0.394050835385	1
8	1471	0.394371355785	3
8	1531	0.410755355785	1
8	1549	0.411843355785	0
8	1591	0.428419355785	1
8	1626	0.428739960787	3
8	1673	0.445123960787	2
8	1696	0.445186985295	1
8	1705	0.446146985295	3
8	1726	0.462530985295	1
8	1761	0.463491541044	3
8	1811	0.479875541044	1
8	1828	0.480642985295	0
8	1862	0.497218985295	2
8	1874	0.497219278139	1
8	1895	0.497859384068	3
8	1946	0.514243384068	1
8	1959	0.514563398663	3
8	1993	0.530947398663	1
8	2004	0.531842985295	0
8	2033	0.548418985295	1
8	2059	0.549699590297	3
8	2109	0.566083590297	1
8	2132	0.567043597029	3
8	2172	0.583427597029	1
8	2186	0.585027611624	3
8	2227	0.601411611624	1
8	2241	0.601731717553	3
8	2275	0.618115717553	1
8	2289	0.618755732148	3
8	2317	0.635139732148	1
8	2328	0.635458985295	0
8	2352	0.652034985295	2
8	2373	0.652163838077	1
8	2384	0.653315590297	3
8	2427	0.669699590297	1
8	2451	0.670980058632	3
8	2484	0.687364058632	1
8	2497	0.688004151577	3
8	2524	0.704388151577	1
8	2536	0.704771877522	3
8	2567	0.721155877522	1
8	2596	0.721540443916	3
8	2656	0.737924443916	1
8	2679	0.738628170366	3
8	2733	0.755012170366	1
8	2748	0.755972276295	3
8	2780	0.772356276295	1
8	2790	0.772804151577	0
8	2820	0.789380151577	1
8	2847	0.78970029089	3
8	2908	0.80608429089	1
8	2920	0.806339877522	3
8	2956	0.822723877522	1
8	2987	0.823556763311	3
8	3047	0.839940763311	1
8	3069	0.840260763311	3
8	3121	0.856644763311	1
8	3145	0.858500544518	3
8	3185	0.874884544518	2
8	3193	0.874947877522	1
8	3208	0.875268276294	3
8	3247	0.891652276294	1
8	3260	0.891972290889	3
8	3292	0.908356290889	1
8	3308	0.909316396818	3
8	3341	0.925700396818	1
8	3356	0.926340411413	3
8	3389	0.942724411413	1
8	3402	0.943684556787	3
8	3426	0.960068556787	1
8	3457	0.960389223783	3
8	3510	0.976773223783	2
8	3520	0.977092517342	1
8	3532	0.977413051443	3
8	3568	0.993797051443	2
8	3577	0.993924849631	1
8	3586	0.994117051443	3
8	3618	1.010501051443	1
8	3629	1.010821201353	3
8	3664	1.027205201353	1
8	3693	1.027525600125	3
8	3754	1.043909600125	1
8	3770	1.04454961472	3
8	3828	1.06093361472	2
8	3835	1.061125343782	1
8	3844	1.061893760093	3
8	3867	1.078277760093	1
8	3892	1.079045760093	0
8	3945	1.095621760093	1
8	3978	1.098245720649	3
8	4004	1.114629720649	1
8	4014	1.115077720649	0
8	4045	1.131653720649	1
8	4076	1.131974701041	3
8	4134	1.148358701041	2
8	4144	1.149126325651	3
8	4180	1.165510325651	1
8	4201	1.165830649328	3
8	4227	1.182214649328	1
8	4260	1.182470793986	3
8	4310	1.198854793986	2
8	4321	1.198919205077	1
8	4337	1.199174793986	3
8	4363	1.215558793986	2
8	4371	1.215622942172	1
8	4383	1.218119086325	3
8	4405	1.234503086325	1
8	4421	1.235271086325	0
8	4445	1.251847086325	1
8	4473	1.253127606725	3
8	4531	1.269511606725	1
8	4542	1.270919606725	0
8	4567	1.287495606725	1
8	4594	1.288776211727	3
8	4632	1.305160211727	1
8	4652	1.305479209181	3
8	4689	1.321863209181	1
8	4717	1.322183209181	3
8	4774	1.338567209181	2
8	4797	1.338567502025	1
8	4803	1.338824211727	0
8	4852	1.355400211727	1
8	4860	1.356168211727	0
8	4874	1.372744211727	1
8	4904	1.373384929403	3
8	4955	1.389768929403	1
8	4967	1.390089285064	3
8	5015	1.406473285064	2
8	5029	1.407113378009	3
8	5058	1.423497378009	1
8	5068	1.424137527919	3
8	5104	1.440521527919	1
8	5133	1.440842194915	3
8	5184	1.457226194915	2
8	5196	1.458825926691	1
8	5206	1.460426022575	3
8	5230	1.476810022575	1
8	5239	1.477258022575	0
8	5278	1.493834022575	1
8	5306	1.494474634309	3
8	5363	1.510858634309	1
8	5373	1.511306634309	0
8	5418	1.527882634309	1
8	5443	1.528523239311	3
8	5487	1.544907239311	1
8	5508	1.545227562988	3
8	5542	1.561611562988	1
8	5567	1.561739562988	0
8	5624	1.578315562988	1
8	5657	1.579276083388	3
8	5694	1.595660083388	2
8	5699	1.595660174722	1
8	5710	1.596428083388	0
8	5740	1.613004083388	1
8	5771	1.614284603788	3
8	5818	1.630668603788	1
8	5834	1.631308695122	3
8	5884	1.647692695122	1
8	5898	1.648652695122	3
8	5942	1.665036695122	1
8	5952	1.665612695122	0
8	5979	1.682188695122	1
8	6008	1.683149300124	3
8	6071	1.699533300124	1
8	6090	1.700301300124	0
8	6113	1.716877300124	1
8	6145	1.717198280516	3
8	6190	1.733582280516	2
8	6199	1.733771935918	1
8	6213	1.734989820524	3
8	6260	1.751373820524	1
8	6273	1.752651935918	3
8	6305	1.769035935918	1
8	6332	1.769356491667	3
8	6402	1.785740491667	1
8	6421	1.788813820524	0
8	6452	1.805389820524	1
8	6483	1.805710800916	3
8	6541	1.822094800916	2
8	6553	1.822734432258	1
8	6564	1.823180430574	3
8	6600	1.839564430574	1
8	6610	1.839884580484	3
8	6650	1.856268580484	1
8	6677	1.856716722913	3
8	6739	1.873100722913	1
8	6762	1.874380722913	3
8	6797	1.890764722913	1
8	6818	1.895500722913	0
8	6828	1.912076722913	1
8	6859	1.912397327915	3
8	6914	1.928781327915	2
8	6916	1.928781334647	1
8	6932	1.934029095843	3
8	6962	1.950413095843	1
8	6988	1.950733095843	3
8	7056	1.967117095843	1
8	7085	1.967437762839	3
8	7146	1.983821762839	2
8	7159	1.985101855784	3
8	7193	2.001485855784	2
8	7201	2.002446148123	3
8	7223	2.018830148123	1
8	7245	2.019470211445	3
8	7288	2.035854211445	1
8	7302	2.03617430439	3
8	7336	2.05255830439	1
8	7348	2.052878660051	3
8	7390	2.069262660051	1
8	7398	2.070798211445	0
8	7424	2.087374211445	1
8	7456	2.088014823179	3
8	7499	2.104398823179	1
8	7509	2.105166823179	0
8	7528	2.121742823179	1
8	7556	2.122063434913	3
8	7602	2.138447434913	1
8	7617	2.139727540855	3
8	7657	2.156111540855	1
8	7670	2.156431896516	3
8	7719	2.172815896516	1
8	7727	2.174479434913	0
8	7760	2.191055434913	1
8	7790	2.191376415305	3
8	7843	2.207760415305	2
8	7857	2.208911989461	3
8	7889	2.225295989461	1
8	7899	2.2256784718	3
8	7939	2.2420624718	1
8	7970	2.242383138796	3
8	8026	2.258767138796	1
8	8048	2.259406764644	3
8	8080	2.275790764644	1
8	8100	2.277390910018	3
8	8124	2.293774910018	1
8	8160	2.296015202862	3
8	8211	2.312399202862	2
8	8222	2.312399404674	1
8	8236	2.313679348236	3
8	8263	2.330063348236	1
8	8287	2.330190764644	0
8	8348	2.346766764644	1
8	8379	2.347407285044	3
8	8437	2.363791285044	1
8	8453	2.36411148232	3
8	8503	2.38049548232	1
8	8519	2.381775774659	3
8	8564	2.398159774659	1
8	8585	2.400719930926	3
8	8631	2.417103930926	1
8	8644	2.417744286587	3
8	8680	2.434128286587	1
8	8690	2.434446764644	0
8	8711	2.451022764644	1
8	8744	2.451983745036	3
8	8795	2.468367745036	1
8	8816	2.469136379532	3
8	8856	2.485520379532	1
8	8867	2.486160671871	3
8	8901	2.502544671871	1
8	8924	2.503632735193	3
8	8962	2.520016735193	1
8	8970	2.520270764644	0
8	8998	2.536846764644	2
8	9013	2.537039137574	1
8	9022	2.537679137574	3
8	9049	2.554063137574	1
8	9079	2.55438363223	3
8	9139	2.57076763223	1
8	9151	2.571087430418	3
8	9201	2.587471430418	1
8	9216	2.589071536347	3
8	9250	2.605455536347	1
8	9260	2.605902764644	0
8	9285	2.622478764644	1
8	9314	2.623119369646	3
8	9364	2.639503369646	1
8	9384	2.63975978214	3
8	9414	2.65614378214	1
8	9443	2.656784337889	3
8	9491	2.673168337889	1
8	9515	2.67502348232	3
8	9563	2.69140748232	1
8	9573	2.691726764644	0
8	9628	2.708302764644	1
8	9639	2.709070764644	0
8	9677	2.725646764644	1
8	9709	2.72628748232	3
8	9767	2.74267148232	1
8	9780	2.743951376378	3
8	9832	2.760335376378	1
8	9845	2.760655390973	3
8	9883	2.777039390973	1
8	9897	2.779279496902	3
8	9929	2.795663496902	1
8	9943	2.798223511497	3
8	9975	2.814607511497	1
8	9988	2.81492778214	3
8	10010	2.83131178214	1
8	10036	2.831695376378	0
8	10089	2.848271376378	2
8	10110	2.848336074984	1
8	10119	2.848784180912	3
8	10179	2.865168180912	1
8	10191	2.865936337889	3
8	10243	2.882320337889	1
8	10261	2.882895376378	0
8	10284	2.899471376378	1
8	10312	2.899599376378	0
8	10371	2.916175376378	2
8	10390	2.91617598138	1
8	10401	2.916495896778	3
8	10429	2.932879896778	1
8	10445	2.934800002707	3
8	10476	2.951184002707	1
8	10488	2.952592002707	0
8	10519	2.969168002707	2
8	10520	2.969168017302	1
8	10538	2.969808607709	3
8	10561	2.986192607709	1
8	10582	2.98676778214	3
8	10606	3.00315178214	1
8	10632	3.00359978214	0
8	10696	3.02017578214	1
8	10731	3.020944449136	3
8	10783	3.037328449136	2
8	10795	3.03752030254	1
8	10804	3.038160408469	3
8	10837	3.054544408469	1
8	10852	3.055057012722	3
8	10891	3.071441012722	1
8	10903	3.07284778214	3
8	10934	3.08923178214	1
8	10964	3.089552074984	3
8	11021	3.105936074984	1
8	11032	3.106192408469	0
8	11066	3.122768408469	1
8	11097	3.123089013471	3
8	11141	3.139473013471	1
8	11164	3.139920180912	3
8	11207	3.156304180912	1
8	11220	3.156624195507	3
8	11253	3.173008195507	1
8	11267	3.173328301436	3
8	11299	3.189712301436	1
8	11310	3.191057013471	0
8	11335	3.207633013471	2
8	11357	3.207696316031	1
8	11366	3.207953731147	3
8	11412	3.224337731147	1
8	11421	3.225425731147	0
8	11452	3.242001731147	1
8	11481	3.242642448823	3
8	11527	3.259026448823	1
8	11539	3.259346804484	3
8	11580	3.275730804484	2
8	11590	3.276370342881	1
8	11595	3.277458448823	0
8	11631	3.294034448823	1
8	11659	3.294354969223	3
8	11699	3.310738969223	1
8	11714	3.312147060557	3
8	11758	3.328531060557	1
8	11772	3.329491075152	3
8	11816	3.345875075152	1
8	11831	3.346515181081	3
8	11857	3.362899181081	1
8	11869	3.36340778214	3
8	11893	3.37979178214	1
8	11925	3.380112276796	3
8	12000	3.396496276796	1
8	12014	3.396816569135	3
8	12053	3.413200569135	1
8	12074	3.414160725402	3
8	12110	3.430544725402	1
8	12121	3.432018969223	0
8	12170	3.448594969223	1
8	12185	3.448915580957	3
8	12230	3.465299580957	1
8	12245	3.466579595552	3
8	12276	3.482963595552	1
8	12289	3.484051595552	0
8	12329	3.500627595552	1
8	12339	3.50151978214	3
8	12376	3.51790378214	1
8	12404	3.51931178214	0
8	12459	3.53588778214	2
8	12481	3.535888337889	1
8	12492	3.536403701481	3
8	12518	3.552787701481	1
8	12530	3.554067861449	3
8	12562	3.570451861449	1
8	12589	3.571347701481	0
8	12647	3.587923701481	1
8	12660	3.588244356105	3
8	12701	3.604628356105	1
8	12709	3.604755701481	0
8	12742	3.621331701481	1
8	12771	3.621652419157	3
8	12836	3.638036419157	1
8	12851	3.639316774818	3
8	12892	3.655700774818	2
8	12899	3.655828648444	1
8	12914	3.656980867763	3
8	12944	3.673364867763	2
8	12951	3.673492648444	1
8	12961	3.675732569067	3
8	12978	3.692116569067	1
8	13008	3.693716861911	3
8	13048	3.710100861911	1
8	13059	3.711508861911	0
8	13082	3.728084861911	1
8	13114	3.729620967839	3
8	13167	3.746004967839	1
8	13188	3.746516569067	3
8	13232	3.762900569067	1
8	13258	3.763220569067	3
8	13310	3.779604569067	1
8	13337	3.779860967839	0
8	13401	3.796436967839	1
8	13413	3.796885842303	3
8	13459	3.813269842303	2
8	13469	3.813780967839	1
8	13480	3.815509935248	3
8	13499	3.831893935248	1
8	13508	3.832341935248	0
8	13543	3.848917935248	1
8	13575	3.849238652924	3
8	13635	3.865622652924	1
8	13648	3.866262802834	3
8	13689	3.882646802834	1
8	13719	3.883287095678	3
8	13761	3.899671095678	1
8	13773	3.900758802834	0
8	13796	3.917334802834	2
8	13809	3.917335241052	1
8	13818	3.917782802834	0
8	13840	3.934358802834	1
8	13866	3.934679175764	3
8	13908	3.951063175764	1
8	13940	3.95215152051	3
8	13999	3.96853552051	1
8	14023	3.96917552051	3
8	14063	3.98555952051	2
8	14065	3.98555967042	1
8	14080	3.986071414568	3
8	14112	4.002455414568	1
8	14122	4.002903414568	0
8	14167	4.019479414568	1
8	14198	4.020119934968	3
8	14246	4.036503934968	2
8	14251	4.036504026302	1
8	14266	4.037144080342	3
8	14290	4.053528080342	1
8	14319	4.054808479114	3
8	14348	4.071192479114	1
8	14360	4.072152639082	3
8	14388	4.088536639082	1
8	14417	4.088857306078	3
8	14470	4.105241306078	2
8	14485	4.105881133738	3
8	14522	4.122265133738	1
8	14533	4.122585283648	3
8	14569	4.138969283648	2
8	14583	4.138969426077	1
8	14598	4.139289489399	3
8	14641	4.155673489399	2
8	14653	4.155993582344	3
8	14694	4.172377582344	1
8	14702	4.172505582344	0
8	14735	4.189081582344	1
8	14761	4.189721874683	3
8	14805	4.206105874683	1
8	14829	4.20655430002	3
8	14868	4.22293830002	1
8	14879	4.223769874683	3
8	14931	4.240153874683	1
8	14956	4.240794279696	3
8	14998	4.257178279696	1
8	15009	4.257818572035	3
8	15037	4.274202572035	1
8	15058	4.27509819836	3
8	15086	4.29148219836	1
8	15118	4.292442597132	3
8	15175	4.308826597132	2
8	15177	4.308826754109	1
8	15191	4.310169874683	0
8	15229	4.326745874683	1
8	15260	4.327066486417	3
8	15322	4.343450486417	1
8	15336	4.344410491204	3
8	15382	4.360794491204	1
8	15394	4.362202491204	0
8	15442	4.378778491204	1
8	15467	4.379738597133	3
8	15492	4.396122597133	1
8	15505	4.396442611728	3
8	15535	4.412826611728	1
8	15546	4.412954611728	0
8	15569	4.429530611728	1
8	15597	4.43004219836	3
8	15643	4.44642619836	1
8	15676	4.447514717657	3
8	15741	4.463898717657	2
8	15752	4.464027132128	1
8	15767	4.464347132128	3
8	15797	4.480731132128	1
8	15808	4.480859132128	0
8	15837	4.497435132128	1
8	15866	4.499035743862	3
8	15912	4.515419743862	1
8	15923	4.515739505058	3
8	15947	4.532123505058	1
8	15976	4.53244390383	3
8	16051	4.54882790383	1
8	16061	4.54895590383	0
8	16098	4.56553190383	1
8	16127	4.566492621506	3
8	16171	4.582876621506	1
8	16182	4.583516063798	3
8	16223	4.599900063798	1
8	16250	4.600220063798	3
8	16305	4.616604063798	1
8	16332	4.616988508832	3
8	16382	4.633372508832	1
8	16410	4.633756558454	3
8	16464	4.650140558454	1
8	16482	4.650460558454	3
8	16522	4.666844558454	1
8	16535	4.669404914115	3
8	16579	4.685788914115	1
8	16594	4.68706900706	3
8	16633	4.70345300706	1
8	16644	4.704156832509	3
8	16674	4.720540832509	1
8	16703	4.721181231281	3
8	16770	4.737565231281	1
8	16782	4.738780832509	3
8	16833	4.755164832509	1
8	16855	4.755485231281	3
8	16901	4.771869231281	1
8	16913	4.772508832509	3
8	16939	4.788892832509	1
8	16964	4.789212621506	0
8	17029	4.805788621506	1
8	17061	4.806109339182	3
8	17123	4.822493339182	1
8	17137	4.823901125353	3
8	17187	4.840285125353	1
8	17201	4.840605231282	3
8	17244	4.856989231282	1
8	17257	4.85794939125	3
8	17288	4.87433339125	1
8	17316	4.874973885906	3
8	17370	4.891357885906	1
8	17383	4.891998241567	3
8	17418	4.908382241567	1
8	17427	4.908508621506	0
8	17460	4.925084621506	1
8	17488	4.926045141906	3
8	17552	4.942429141906	1
8	17563	4.943004621506	0
8	17584	4.959580621506	1
8	17618	4.96022123324	3
8	17682	4.97660523324	1
8	17707	4.977245247835	3
8	17754	4.993629247835	1
8	17775	4.99682923324	3
8	17810	5.01321323324	1
8	17824	5.01417323324	3
8	17858	5.03055723324	1
8	17868	5.030876621506	0
8	17896	5.047452621506	2
8	17917	5.047581247835	1
8	17924	5.048093226508	3
8	17955	5.064477226508	1
8	17970	5.06633328728	3
8	17984	5.08271728728	1
8	18001	5.08463728728	3
8	18019	5.10102128728	1
8	18034	5.10210928728	0
8	18043	5.11868528728	1
8	18073	20.002240305867	3
8	18084	20.018624305867	1
8	18096	20.019584320462	3
8	18108	20.035968320462	1
8	18119	20.038208465836	3
8	18127	20.054592465836	1
8	18142	20.056000465836	0
8	18151	20.072576465836	1
8	18189	40.000320305867	3
8	18201	40.016704305867	1
8	18212	40.017024320462	3
8	18224	40.033408320462	1
8	18235	40.035968465836	3
8	18243	40.052352465836	1
8	18258	40.054400465836	0
8	18267	40.070976465836	1
8	18303	60.002240305867	3
8	18314	60.018624305867	1
8	18326	60.020224320462	3
8	18338	60.036608320462	1
8	18349	60.037568465836	3
8	18357	60.053952465836	1
8	18372	60.056000465836	0
8	18381	60.072576465836	1
8	18417	80.000960305867	3
8	18428	80.017344305867	1
8	18440	80.018304320462	3
8	18452	80.034688320462	1
8	18463	80.036608465836	3
8	18471	80.052992465836	1
8	18486	80.053120465836	0
8	18495	80.069696465836	1
8	18529	100.001600305867	3
8	18541	100.017984305867	1
8	18552	100.018304320462	3
8	18564	100.034688320462	1
8	18575	100.036928465836	3
8	18583	100.053312465836	1
8	18598	100.054720465836	0
8	18607	100.071296465836	1
8	18645	120.001920305867	3
8	18656	120.018304305867	1
8	18668	120.019904320462	3
8	18681	120.036288320462	1
8	18691	120.036608465836	3
8	18699	120.052992465836	1
8	18714	120.055040465836	0
8	18723	120.071616465836	1
8	18757	140.000960305867	3
8	18768	140.017344305867	1
8	18780	140.018624320462	3
8	18792	140.035008320462	1
8	18803	140.036928465836	3
8	18811	140.053312465836	1
8	18826	140.054080465836	0
8	18835	140.070656465836	1
8	18871	160.000960305867	3
8	18882	160.017344305867	1
8	18894	160.019584320462	3
8	18906	160.035968320462	1
8	18917	160.038528465836	3
8	18925	160.054912465836	1
8	18940	160.055680465836	0
8	18949	160.072256465836	1
8	18987	180.002560305867	3
8	18998	180.018944305867	1
8	19010	180.020224320462	3
8	19022	180.036608320462	1
8	19033	180.038848465836	3
8	19041	180.055232465836	1
8	19056	180.056000465836	0
8	19065	180.072576465836	1
8	19099	200.001920305867	3
8	19110	200.018304305867	1
8	19122	200.018944320462	3
8	19134	200.035328320462	1
8	19145	200.036608465836	3
8	19153	200.052992465836	1
8	19168	200.053440465836	0
8	19177	200.070016465836	1
8	19211	220.001920305867	3
8	19222	220.018304305867	1
8	19234	220.020544320462	3
8	19246	220.036928320462	1
8	19257	220.037568465836	3
8	19265	220.053952465836	1
8	19280	220.055040465836	0
8	19289	220.071616465836	1
8	19327	240.002240305867	3
8	19338	240.018624305867	1
8	19350	240.019904320462	3
8	19362	240.036288320462	1
8	19373	240.037248465836	3
8	19381	240.053632465836	1
8	19396	240.056000465836	0
8	19405	240.072576465836	1
8	19439	260.002240305867	3
8	19450	260.018624305867	1
8	19462	260.020544320462	3
8	19474	260.036928320462	1
8	19485	260.038208465836	3
8	19493	260.054592465836	1
8	19508	260.055680465836	0
8	19517	260.072256465836	1
8	19555	280.000960305867	3
8	19566	280.017344305867	1
8	19578	280.017984320462	3
8	19590	280.034368320462	1
8	19601	280.036608465836	3
8	19609	280.052992465836	1
8	19624	280.053120465836	0
8	19633	280.069696465836	1
8	19669	300.002240305867	3
8	19681	300.018624305867	1
8	19692	300.018944320462	3
8	19704	300.035328320462	1
8	19715	300.037568465836	3
8	19723	300.053952465836	1
8	19738	300.055040465836	0
8	19747	300.071616465836	1
8	19781	320.001600305867	3
8	19793	320.017984305867	1
8	19804	320.018304320462	3
8	19816	320.034688320462	1
8	19827	320.035968465836	3
8	19835	320.052352465836	1
8	19850	320.053760465836	0
8	19859	320.070336465836	1
8	19893	340.001280305867	3
8	19904	340.017664305867	1
8	19916	340.018944320462	3
8	19928	340.035328320462	1
8	19939	340.037248465836	3
8	19947	340.053632465836	1
8	19962	340.054720465836	0
8	19971	340.071296465836	1
8	20011	360.001280305867	3
8	20022	360.017664305867	1
8	20034	360.018944320462	3
8	20047	360.035328320462	1
8	20057	360.035648465836	3
8	20065	360.052032465836	1
8	20080	360.053440465836	0
8	20089	360.070016465836	1
8	20121	380.000320305867	3
8	20132	380.016704305867	1
8	20144	380.017664320462	3
8	20156	380.034048320462	1
8	20167	380.036288465836	3
8	20175	380.052672465836	1
8	20190	380.054720465836	0
8	20199	380.071296465836	1
8	20237	400.001920305867	3
8	20248	400.018304305867	1
8	20260	400.019904320462	3
8	20272	400.036288320462	1
8	20283	400.037248465836	3
8	20291	400.053632465836	1
8	20306	400.054080465836	0
8	20315	400.070656465836	1
8	20351	420.001920305867	3
8	20362	420.018304305867	1
8	20374	420.018944320462	3
8	20386	420.035328320462	1
8	20397	420.036928465836	3
8	20405	420.053312465836	1
8	20420	420.055680465836	0
8	20429	420.072256465836	1
8	20463	440.001920305867	3
8	20474	440.018304305867	1
8	20486	440.019904320462	3
8	20498	440.036288320462	1
8	20509	440.038848465836	3
8	20517	440.055232465836	1
8	20532	440.056000465836	0
8	20541	440.072576465836	1
8	20577	460.001920305867	3
8	20589	460.018304305867	1
8	20600	460.018624320462	3
8	20612	460.035008320462	1
8	20623	460.037248465836	3
8	20631	460.053632465836	1
8	20646	460.055040465836	0
8	20655	460.071616465836	1
8	20693	480.000960305867	3
8	20705	480.017344305867	1
8	20716	480.017664320462	3
8	20729	480.034048320462	1
8	20739	480.034368465836	3
8	20747	480.050752465836	1
8	20762	480.051200465836	0
8	20771	480.067776465836	1
8	20805	500.001600305867	3
8	20816	500.017984305867	1
8	20828	500.018624320462	3
8	20840	500.035008320462	1
8	20851	500.036288465836	3
8	20859	500.052672465836	1
8	20874	500.053120465836	0
8	20883	500.069696465836	1
[...]
26	70173	9180.002560605899	3
26	70186	9180.018944605899	1
26	70196	9180.020544622847	3
26	70210	9180.036928622847	1
26	70222	9180.039488719084	3
26	70237	9180.055872719084	1
26	70244	9180.056832768337	3
26	70254	9180.073216768337	1
26	70285	9200.000960605899	3
26	70298	9200.017344605899	1
26	70308	9200.018304622847	3
26	70322	9200.034688622847	1
26	70334	9200.035968719084	3
26	70349	9200.052352719084	1
26	70356	9200.053952768337	3
26	70366	9200.070336768337	1
26	70397	9220.001280605899	3
26	70410	9220.017664605899	1
26	70420	9220.018624622847	3
26	70434	9220.035008622847	1
26	70446	9220.037248719084	3
26	70461	9220.053632719084	1
26	70468	9220.056192768337	3
26	70478	9220.072576768337	1
26	70515	9240.002560605899	3
26	70528	9240.018944605899	1
26	70538	9240.020544622847	3
26	70552	9240.036928622847	1
26	70564	9240.038208719084	3
26	70580	9240.054592719084	1
26	70586	9240.054912768337	3
26	70596	9240.071296768337	1
26	70625	9260.001280605899	3
26	70638	9260.017664605899	1
26	70648	9260.018944622847	3
26	70662	9260.035328622847	1
26	70674	9260.035968719084	3
26	70689	9260.052352719084	1
26	70696	9260.053632768337	3
26	70706	9260.070016768337	1
26	70741	9280.001600605899	3
26	70754	9280.017984605899	1
26	70764	9280.019584622847	3
26	70778	9280.035968622847	1
26	70790	9280.038528719084	3
26	70805	9280.054912719084	1
26	70812	9280.057152768337	3
26	70822	9280.073536768337	1
26	70855	9300.002240605899	3
26	70868	9300.018624605899	1
26	70878	9300.020544622847	3
26	70893	9300.036928622847	1
26	70904	9300.037248719084	3
26	70920	9300.053632719084	1
26	70926	9300.053952768337	3
26	70936	9300.070336768337	1
26	70967	9320.000640605899	3
26	70980	9320.017024605899	1
26	70990	9320.019264622847	3
26	71004	9320.035648622847	1
26	71016	9320.038208719084	3
26	71031	9320.054592719084	1
26	71038	9320.057152768337	3
26	71048	9320.073536768337	1
26	71079	9340.000640605899	3
26	71092	9340.017024605899	1
26	71102	9340.018944622847	3
26	71116	9340.035328622847	1
26	71128	9340.036288719084	3
26	71143	9340.052672719084	1
26	71150	9340.055232768337	3
26	71160	9340.071616768337	1
26	71197	9360.001280605899	3
26	71210	9360.017664605899	1
26	71220	9360.019904622847	3
26	71234	9360.036288622847	1
26	71246	9360.038528719084	3
26	71261	9360.054912719084	1
26	71268	9360.057152768337	3
26	71278	9360.073536768337	1
26	71309	9380.001920605899	3
26	71322	9380.018304605899	1
26	71332	9380.018944622847	3
26	71346	9380.035328622847	1
26	71358	9380.035968719084	3
26	71373	9380.052352719084	1
26	71380	9380.053632768337	3
26	71390	9380.070016768337	1
26	71423	9400.000960605899	3
26	71436	9400.017344605899	1
26	71446	9400.019584622847	3
26	71460	9400.035968622847	1
26	71472	9400.038528719084	3
26	71487	9400.054912719084	1
26	71494	9400.056832768337	3
26	71504	9400.073216768337	1
26	71537	9420.000640605899	3
26	71550	9420.017024605899	1
26	71560	9420.019584622847	3
26	71574	9420.035968622847	1
26	71586	9420.038208719084	3
26	71601	9420.054592719084	1
26	71608	9420.055872768337	3
26	71618	9420.072256768337	1
26	71649	9440.000320605899	3
26	71662	9440.016704605899	1
26	71672	9440.017984622847	3
26	71686	9440.034368622847	1
26	71698	9440.035008719084	3
26	71713	9440.051392719084	1
26	71720	9440.052352768337	3
26	71730	9440.068736768337	1
26	71763	9460.001920605899	3
26	71776	9460.018304605899	1
26	71786	9460.020544622847	3
26	71800	9460.036928622847	1
26	71812	9460.038208719084	3
26	71827	9460.054592719084	1
26	71834	9460.055872768337	3
26	71844	9460.072256768337	1
26	71879	9480.001920605899	3
26	71892	9480.018304605899	1
26	71902	9480.020544622847	3
26	71916	9480.036928622847	1
26	71928	9480.038208719084	3
26	71943	9480.054592719084	1
26	71950	9480.056832768337	3
26	71960	9480.073216768337	1
26	71991	9500.000960605899	3
26	72004	9500.017344605899	1
26	72014	9500.018624622847	3
26	72028	9500.035008622847	1
26	72040	9500.036608719084	3
26	72055	9500.052992719084	1
26	72062	9500.055552768337	3
26	72072	9500.071936768337	1
26	72105	9520.001920605899	3
26	72118	9520.018304605899	1
26	72128	9520.019904622847	3
26	72142	9520.036288622847	1
26	72154	9520.038848719084	3
26	72169	9520.055232719084	1
26	72176	9520.056192768337	3
26	72186	9520.072576768337	1
26	72219	9540.001920605899	3
26	72232	9540.018304605899	1
26	72242	9540.018944622847	3
26	72256	9540.035328622847	1
26	72268	9540.036608719084	3
26	72283	9540.052992719084	1
26	72290	9540.054592768337	3
26	72300	9540.070976768337	1
26	72333	9560.002560605899	3
26	72346	9560.018944605899	1
26	72356	9560.019904622847	3
26	72370	9560.036288622847	1
26	72382	9560.038208719084	3
26	72397	9560.054592719084	1
26	72404	9560.057152768337	3
26	72414	9560.073536768337	1
26	72445	9580.000640605899	3
26	72458	9580.017024605899	1
26	72468	9580.017984622847	3
26	72482	9580.034368622847	1
26	72494	9580.036608719084	3
26	72510	9580.052992719084	1
26	72516	9580.053312768337	3
26	72526	9580.069696768337	1
26	72563	9600.002240605899	3
26	72577	9600.018624605899	1
26	72586	9600.018944622847	3
26	72600	9600.035328622847	1
26	72612	9600.036928719084	3
26	72628	9600.053312719084	1
26	72634	9600.053632768337	3
26	72644	9600.070016768337	1
26	72671	9620.000960605899	3
26	72684	9620.017344605899	1
26	72694	9620.017984622847	3
26	72708	9620.034368622847	1
26	72720	9620.035968719084	3
26	72735	9620.052352719084	1
26	72742	9620.054592768337	3
26	72752	9620.070976768337	1
26	72787	9640.001920605899	3
26	72800	9640.018304605899	1
26	72810	9640.020544622847	3
26	72824	9640.036928622847	1
26	72836	9640.039488719084	3
26	72851	9640.055872719084	1
26	72858	9640.058432768337	3
26	72868	9640.074816768337	1
26	72903	9660.001920605899	3
26	72916	9660.018304605899	1
26	72926	9660.019264622847	3
26	72940	9660.035648622847	1
26	72952	9660.036928719084	3
26	72967	9660.053312719084	1
26	72974	9660.054272768337	3
26	72984	9660.070656768337	1
26	73015	9680.000960605899	3
26	73028	9680.017344605899	1
26	73038	9680.018304622847	3
26	73052	9680.034688622847	1
26	73064	9680.035648719084	3
26	73079	9680.052032719084	1
26	73086	9680.053312768337	3
26	73096	9680.069696768337	1
26	73129	9700.001280605899	3
26	73142	9700.017664605899	1
26	73152	9700.018304622847	3
26	73167	9700.034688622847	1
26	73178	9700.035008719084	3
26	73193	9700.051392719084	1
26	73200	9700.052032768337	3
26	73210	9700.068416768337	1
26	73243	9720.001600605899	3
26	73256	9720.017984605899	1
26	73266	9720.019264622847	3
26	73280	9720.035648622847	1
26	73292	9720.038208719084	3
26	73307	9720.054592719084	1
26	73314	9720.056512768337	3
26	73324	9720.072896768337	1
26	73355	9740.002560605899	3
26	73368	9740.018944605899	1
26	73378	9740.019904622847	3
26	73392	9740.036288622847	1
26	73404	9740.038528719084	3
26	73419	9740.054912719084	1
26	73426	9740.056192768337	3
26	73436	9740.072576768337	1
26	73469	9760.000320605899	3
26	73482	9760.016704605899	1
26	73492	9760.019264622847	3
26	73506	9760.035648622847	1
26	73518	9760.036288719084	3
26	73533	9760.052672719084	1
26	73540	9760.054592768337	3
26	73550	9760.070976768337	1
26	73585	9780.000320605899	3
26	73598	9780.016704605899	1
26	73608	9780.017984622847	3
26	73622	9780.034368622847	1
26	73634	9780.035328719084	3
26	73649	9780.051712719084	1
26	73656	9780.053312768337	3
26	73666	9780.069696768337	1
26	73699	9800.000960605899	3
26	73713	9800.017344605899	1
26	73722	9800.017664622847	3
26	73736	9800.034048622847	1
26	73748	9800.034688719084	3
26	73763	9800.051072719084	1
26	73770	9800.053632768337	3
26	73780	9800.070016768337	1
26	73809	9820.002240605899	3
26	73822	9820.018624605899	1
26	73832	9820.020864622847	3
26	73846	9820.037248622847	1
26	73858	9820.037888719084	3
26	73873	9820.054272719084	1
26	73880	9820.055872768337	3
26	73890	9820.072256768337	1
26	73927	9840.001920605899	3
26	73940	9840.018304605899	1
26	73950	9840.020544622847	3
26	73964	9840.036928622847	1
26	73976	9840.038528719084	3
26	73991	9840.054912719084	1
26	73998	9840.055872768337	3
26	74008	9840.072256768337	1
26	74037	9860.002240605899	3
26	74050	9860.018624605899	1
26	74060	9860.019904622847	3
26	74074	9860.036288622847	1
26	74086	9860.036928719084	3
26	74101	9860.053312719084	1
26	74108	9860.054592768337	3
26	74118	9860.070976768337	1
26	74153	9880.002240605899	3
26	74166	9880.018624605899	1
26	74176	9880.019584622847	3
26	74190	9880.035968622847	1
26	74202	9880.036608719084	3
26	74217	9880.052992719084	1
26	74224	9880.054272768337	3
26	74234	9880.070656768337	1
26	74267	9900.000640605899	3
26	74280	9900.017024605899	1
26	74290	9900.018944622847	3
26	74304	9900.035328622847	1
26	74316	9900.035968719084	3
26	74331	9900.052352719084	1
26	74338	9900.054272768337	3
26	74348	9900.070656768337	1
26	74379	9920.000960605899	3
26	74392	9920.017344605899	1
26	74402	9920.019584622847	3
26	74416	9920.035968622847	1
26	74428	9920.037888719084	3
26	74444	9920.054272719084	1
26	74450	9920.054592768337	3
26	74460	9920.070976768337	1
26	74493	9940.000320605899	3
26	74506	9940.016704605899	1
26	74516	9940.017344622847	3
26	74530	9940.033728622847	1
26	74542	9940.036288719084	3
26	74558	9940.052672719084	1
26	74564	9940.052992768337	3
26	74574	9940.069376768337	1
26	74609	9960.002240605899	3
26	74622	9960.018624605899	1
26	74632	9960.019584622847	3
26	74646	9960.035968622847	1
26	74658	9960.036608719084	3
26	74673	9960.052992719084	1
26	74680	9960.054592768337	3
26	74690	9960.070976768337	1
26	74721	9980.000960605899	3
26	74734	9980.017344605899	1
26	74744	9980.019584622847	3
26	74758	9980.035968622847	1
26	74770	9980.037888719084	3
26	74785	9980.054272719084	1
26	74792	9980.056192768337	3
26	74802	9980.072576768337	1
26	74835	10000.000640605899	3
26	74849	10000.017024605899	1
26	74858	10000.017344622847	3
26	74872	10000.033728622847	1
26	74884	10000.034368719084	3
26	74899	10000.050752719084	1
26	74906	10000.051712768337	3
26	74916	10000.068096768337	1
26	74949	10020.000640605899	3
26	74962	10020.017024605899	1
26	74972	10020.018944622847	3
26	74986	10020.035328622847	1
26	74998	10020.035968719084	3
26	75013	10020.052352719084	1
26	75020	10020.052992768337	3
26	75030	10020.069376768337	1
26	75061	10040.000640605899	3
26	75074	10040.017024605899	1
26	75084	10040.019584622847	3
26	75098	10040.035968622847	1
26	75110	10040.037888719084	3
26	75125	10040.054272719084	1
26	75132	10040.055872768337	3
26	75142	10040.072256768337	1
26	75175	10060.000640605899	3
26	75189	10060.017024605899	1
26	75198	10060.017344622847	3
26	75212	10060.033728622847	1
26	75224	10060.036288719084	3
26	75239	10060.052672719084	1
26	75246	10060.054592768337	3
26	75256	10060.070976768337	1
26	75293	10080.000960605899	3
26	75306	10080.017344605899	1
26	75316	10080.018624622847	3
26	75330	10080.035008622847	1
26	75342	10080.037248719084	3
26	75357	10080.053632719084	1
26	75364	10080.055232768337	3
26	75374	10080.071616768337	1
26	75403	10100.001600605899	3
26	75416	10100.017984605899	1
26	75426	10100.019264622847	3
26	75440	10100.035648622847	1
26	75452	10100.036608719084	3
26	75467	10100.052992719084	1
26	75474	10100.054592768337	3
26	75484	10100.070976768337	1
26	75517	10120.001600605899	3
26	75531	10120.017984605899	1
26	75540	10120.018304622847	3
26	75554	10120.034688622847	1
26	75566	10120.035968719084	3
26	75582	10120.052352719084	1
26	75588	10120.052672768337	3
26	75598	10120.069056768337	1
26	75631	10140.000960605899	3
26	75645	10140.017344605899	1
26	75654	10140.017664622847	3
26	75668	10140.034048622847	1
26	75680	10140.035648719084	3
26	75695	10140.052032719084	1
26	75702	10140.053952768337	3
26	75712	10140.070336768337	1
26	75745	10160.000960605899	3
26	75758	10160.017344605899	1
26	75768	10160.019264622847	3
26	75782	10160.035648622847	1
26	75794	10160.036608719084	3
26	75809	10160.052992719084	1
26	75816	10160.055232768337	3
26	75826	10160.071616768337	1
26	75857	10180.002240605899	3
26	75870	10180.018624605899	1
26	75880	10180.019584622847	3
26	75894	10180.035968622847	1
26	75906	10180.036928719084	3
26	75921	10180.053312719084	1
26	75928	10180.054912768337	3
26	75938	10180.071296768337	1
26	75975	10200.000960605899	3
26	75988	10200.017344605899	1
26	75998	10200.018304622847	3
26	76012	10200.034688622847	1
26	76024	10200.035968719084	3
26	76039	10200.052352719084	1
26	76046	10200.053312768337	3
26	76056	10200.069696768337	1
26	76085	10220.001920605899	3
26	76098	10220.018304605899	1
26	76108	10220.019904622847	3
26	76122	10220.036288622847	1
26	76134	10220.037248719084	3
26	76150	10220.053632719084	1
26	76156	10220.053952768337	3
26	76166	10220.070336768337	1
26	76199	10240.000640605899	3
26	76212	10240.017024605899	1
26	76222	10240.018304622847	3
26	76236	10240.034688622847	1
26	76248	10240.036288719084	3
26	76263	10240.052672719084	1
26	76270	10240.054912768337	3
26	76280	10240.071296768337	1
26	76315	10260.000960605899	3
26	76328	10260.017344605899	1
26	76338	10260.019584622847	3
26	76352	10260.035968622847	1
26	76364	10260.038528719084	3
26	76379	10260.054912719084	1
26	76386	10260.057152768337	3
26	76396	10260.073536768337	1
26	76427	10280.000640605899	3
26	76440	10280.017024605899	1
26	76450	10280.018944622847	3
26	76464	10280.035328622847	1
26	76476	10280.036928719084	3
26	76491	10280.053312719084	1
26	76498	10280.054912768337	3
26	76508	10280.071296768337	1
26	76541	10300.001280605899	3
26	76554	10300.017664605899	1
26	76564	10300.018624622847	3
26	76578	10300.035008622847	1
26	76590	10300.036608719084	3
26	76605	10300.052992719084	1
26	76612	10300.054272768337	3
26	76622	10300.070656768337	1
26	76655	10320.000960605899	3
26	76668	10320.017344605899	1
26	76678	10320.019584622847	3
26	76692	10320.035968622847	1
26	76704	10320.036608719084	3
26	76719	10320.052992719084	1
26	76726	10320.053632768337	3
26	76736	10320.070016768337	1
26	76767	10340.002560605899	3
26	76780	10340.018944605899	1
26	76790	10340.019584622847	3
26	76804	10340.035968622847	1
26	76816	10340.036928719084	3
26	76831	10340.053312719084	1
26	76838	10340.055552768337	3
26	76848	10340.071936768337	1
26	76883	10360.000640605899	3
26	76896	10360.017024605899	1
26	76906	10360.018304622847	3
26	76920	10360.034688622847	1
26	76932	10360.036288719084	3
26	76947	10360.052672719084	1
26	76954	10360.054912768337	3
26	76964	10360.071296768337	1
26	76997	10380.001920605899	3
26	77010	10380.018304605899	1
26	77020	10380.020224622847	3
26	77034	10380.036608622847	1
26	77046	10380.038208719084	3
26	77061	10380.054592719084	1
26	77068	10380.056192768337	3
26	77078	10380.072576768337	1
26	77111	10400.002560605899	3
26	77124	10400.018944605899	1
26	77134	10400.020544622847	3
26	77148	10400.036928622847	1
26	77160	10400.038208719084	3
26	77175	10400.054592719084	1
26	77182	10400.055872768337	3
26	77192	10400.072256768337	1
26	77221	10420.002240605899	3
26	77234	10420.018624605899	1
26	77244	10420.020544622847	3
26	77258	10420.036928622847	1
26	77270	10420.039168719084	3
26	77286	10420.055552719084	1
26	77292	10420.055872768337	3
26	77302	10420.072256768337	1
26	77339	10440.002240605899	3
26	77352	10440.018624605899	1
26	77362	10440.019584622847	3
26	77376	10440.035968622847	1
26	77388	10440.036608719084	3
26	77403	10440.052992719084	1
26	77410	10440.053632768337	3
26	77420	10440.070016768337	1
26	77449	10460.001600605899	3
26	77462	10460.017984605899	1
26	77472	10460.019264622847	3
26	77486	10460.035648622847	1
26	77498	10460.036928719084	3
26	77513	10460.053312719084	1
26	77520	10460.053952768337	3
26	77530	10460.070336768337	1
26	77565	10480.000960605899	3
26	77578	10480.017344605899	1
26	77588	10480.018624622847	3
26	77602	10480.035008622847	1
26	77614	10480.037248719084	3
26	77629	10480.053632719084	1
26	77636	10480.054272768337	3
26	77646	10480.070656768337	1
26	77681	10500.001920605899	3
26	77694	10500.018304605899	1
26	77704	10500.020224622847	3
26	77719	10500.036608622847	1
26	77730	10500.036928719084	3
26	77745	10500.053312719084	1
26	77752	10500.054912768337	3
26	77762	10500.071296768337	1
26	77791	10520.000960605899	3
26	77805	10520.017344605899	1
26	77814	10520.017664622847	3
27	228	0.052161063175	1
27	229	0.052353063175	2
27	262	0.068737063175	1
27	262	0.068737063175	0
27	650	0.169730473454	1
27	655	0.169922473454	2
27	715	0.186306473454	1
27	715	0.186306473454	0
27	1620	0.428547658286	1
27	1624	0.428739658286	2
27	1671	0.445123658286	1
27	1671	0.445123658286	0
27	1753	0.463299238543	1
27	1758	0.463491238543	2
27	1802	0.479875238543	1
27	1802	0.479875238543	0
27	2057	0.549507287796	1
27	2058	0.549699287796	2
27	2108	0.566083287796	1
27	2108	0.566083287796	0
27	2379	0.653123287796	1
27	2381	0.653315287796	2
27	2421	0.669699287796	1
27	2421	0.669699287796	0
27	2592	0.721348141415	1
27	2595	0.721540141415	2
27	2655	0.737924141415	1
27	2655	0.737924141415	0
27	3766	1.044549041281	1
27	3774	1.044741041281	2
27	3834	1.061125041281	1
27	3834	1.061125041281	0
27	4142	1.14893402315	1
27	4143	1.14912602315	2
27	4179	1.16551002315	1
27	4179	1.16551002315	0
27	4255	1.182342902576	1
27	4264	1.182534902576	2
27	4318	1.198918902576	1
27	4318	1.198918902576	0
27	4378	1.217926783824	1
27	4380	1.218118783824	2
27	4396	1.234502783824	1
27	4396	1.234502783824	0
27	4591	1.288583909226	1
27	4592	1.288775909226	2
27	4631	1.305159909226	1
27	4631	1.305159909226	0
27	4801	1.338695462429	1
27	4804	1.338887462429	2
27	4840	1.355271462429	1
27	4840	1.355271462429	0
27	5441	1.52833093681	1
27	5442	1.52852293681	2
27	5486	1.54490693681	1
27	5486	1.54490693681	0
27	6005	1.682956997623	1
27	6007	1.683148997623	2
27	6070	1.699532997623	1
27	6070	1.699532997623	0
27	6330	1.769164189166	1
27	6331	1.769356189166	2
27	6401	1.785740189166	1
27	6401	1.785740189166	0
27	6675	1.856524420412	1
27	6676	1.856716420412	2
27	6738	1.873100420412	1
27	6738	1.873100420412	0
27	6759	1.874188420412	1
27	6761	1.874380420412	2
27	6796	1.890764420412	1
27	6796	1.890764420412	0
27	6853	1.912205025414	1
27	6855	1.912397025414	2
27	6904	1.928781025414	1
27	6904	1.928781025414	0
27	7199	2.002253845622	1
27	7200	2.002445845622	2
27	7222	2.018829845622	1
27	7222	2.018829845622	0
27	8514	2.381583472158	1
27	8516	2.381775472158	2
27	8555	2.398159472158	1
27	8555	2.398159472158	0
27	8865	2.48596836937	1
27	8866	2.48616036937	2
27	8900	2.50254436937	1
27	8900	2.50254436937	0
27	9311	2.622927067145	1
27	9312	2.623119067145	2
27	9363	2.639503067145	1
27	9363	2.639503067145	0
27	9439	2.656592035388	1
27	9442	2.656784035388	2
27	9490	2.673168035388	1
27	9490	2.673168035388	0
27	10189	2.865744035388	1
27	10190	2.865936035388	2
27	10242	2.882320035388	1
27	10242	2.882320035388	0
27	10314	2.899599678879	1
27	10319	2.899791678879	2
27	10377	2.916175678879	1
27	10377	2.916175678879	0
27	10536	2.969616305208	1
27	10537	2.969808305208	2
27	10560	2.986192305208	1
27	10560	2.986192305208	0
27	11087	3.12289671097	1
27	11096	3.12308871097	2
27	11140	3.13947271097	1
27	11140	3.13947271097	0
27	12009	3.396624266634	1
27	12011	3.396816266634	2
27	12046	3.413200266634	1
27	12046	3.413200266634	0
27	12405	3.519312035388	1
27	12414	3.519504035388	2
27	12474	3.535888035388	1
27	12474	3.535888035388	0
27	12588	3.571220114697	1
27	12590	3.571412114697	2
27	12635	3.587796114697	1
27	12635	3.587796114697	0
27	12847	3.639252345943	1
27	12856	3.639444345943	2
27	12898	3.655828345943	1
27	12898	3.655828345943	0
27	12909	3.656916345943	1
27	12917	3.657108345943	2
27	12950	3.673492345943	1
27	12950	3.673492345943	0
27	13335	3.779732822315	1
27	13339	3.779924822315	2
27	13389	3.796308822315	1
27	13389	3.796308822315	0
27	14530	4.122393123576	1
27	14532	4.122585123576	2
27	14568	4.138969123576	1
27	14568	4.138969123576	0
27	14759	4.189529572182	1
27	14760	4.189721572182	2
27	14804	4.206105572182	1
27	14804	4.206105572182	0
27	14877	4.223577572182	1
27	14878	4.223769572182	2
27	14930	4.240153572182	1
27	14930	4.240153572182	0
27	15007	4.257626269534	1
27	15008	4.257818269534	2
27	15036	4.274202269534	1
27	15036	4.274202269534	0
27	15113	4.292250451608	1
27	15116	4.292442451608	2
27	15170	4.308826451608	1
27	15170	4.308826451608	0
27	16330	4.616796206331	1
27	16331	4.616988206331	2
27	16381	4.633372206331	1
27	16381	4.633372206331	0
27	17922	5.047900924007	1
27	17923	5.048092924007	2
27	17954	5.064476924007	1
27	17954	5.064476924007	0
